## avogadro generated ORCA input file 
# Advanced Mode
# 
! B3LYP OPT def2-SVP NormalPrint defgrid2 NormalSCF 

! CPCM
%cpcm
epsilon 69.0
refrac 1.34
end

%scf
	MaxIter 125
	CNVDIIS 1
	CNVSOSCF 1 
end

* xyz -8 1
  Cl        2.82569       -1.62915       -0.50434
  Cl       -0.43201        2.03115        0.75569
  Ca        1.19683        0.20100        0.12567
*

