## avogadro generated ORCA input file 
# Advanced Mode
# 
! B3LYP OPT def2-SVP NormalPrint defgrid2 NormalSCF 

! CPCM
%cpcm
epsilon 69.0
refrac 1.34
end

%scf
	MaxIter 125
	CNVDIIS 1
	CNVSOSCF 1 
end

* xyz -10 1
   O        0.94589        0.28295       -0.27855
   S        2.35329       -0.04652       -0.03314
   O        3.13555        1.14196       -0.38683
   O        2.56563       -0.41079        1.37105
   O        2.76606       -1.20020       -0.83822
   K        1.27513        2.57149       -1.06637
   K        3.43120       -2.66461        1.00015
*

