7
Coordinates from ORCA-job K2SO4_DFT E -1898.236624830769
  O       0.945890      0.282950     -0.278550
  S       2.353290     -0.046520     -0.033140
  O       3.135550      1.141960     -0.386830
  O       2.565630     -0.410790      1.371050
  O       2.766060     -1.200200     -0.838220
  K       1.275130      2.571490     -1.066370
  K       3.431200     -2.664610      1.000150
7
Coordinates from ORCA-job K2SO4_DFT E -1898.249978080919
  O       0.922215      0.286512     -0.288055
  S       2.354129     -0.046843     -0.034556
  O       3.148349      1.161913     -0.398866
  O       2.572529     -0.414823      1.394565
  O       2.777668     -1.220882     -0.851233
  K       1.261003      2.600772     -1.068716
  K       3.436857     -2.692368      1.014950
7
Coordinates from ORCA-job K2SO4_DFT E -1898.262720861926
  O       0.890360      0.287142     -0.299582
  S       2.355943     -0.047336     -0.037412
  O       3.168251      1.186748     -0.415282
  O       2.580715     -0.415945      1.425833
  O       2.793900     -1.246618     -0.871570
  K       1.233641      2.658406     -1.077034
  K       3.449939     -2.748118      1.043137
7
Coordinates from ORCA-job K2SO4_DFT E -1898.273244488861
  O       0.872304      0.281457     -0.307717
  S       2.358192     -0.047490     -0.040109
  O       3.182136      1.198443     -0.428645
  O       2.587989     -0.410174      1.443794
  O       2.808149     -1.257962     -0.885692
  K       1.204418      2.715972     -1.085081
  K       3.459562     -2.805966      1.071539
7
Coordinates from ORCA-job K2SO4_DFT E -1898.281527356230
  O       0.870190      0.271780     -0.309337
  S       2.360510     -0.045823     -0.044333
  O       3.190575      1.197281     -0.434063
  O       2.588959     -0.403447      1.453520
  O       2.815040     -1.264640     -0.897187
  K       1.174857      2.777428     -1.097917
  K       3.472618     -2.858299      1.097407
7
Coordinates from ORCA-job K2SO4_DFT E -1898.291412847396
  O       0.883747      0.257624     -0.304243
  S       2.362420     -0.044104     -0.048277
  O       3.192687      1.181445     -0.431813
  O       2.585111     -0.393211      1.449160
  O       2.815370     -1.259048     -0.902568
  K       1.147230      2.836146     -1.113693
  K       3.486185     -2.904571      1.119523
7
Coordinates from ORCA-job K2SO4_DFT E -1898.299752276165
  O       0.905488      0.241574     -0.297065
  S       2.363783     -0.043371     -0.051177
  O       3.190941      1.157840     -0.426116
  O       2.579515     -0.383033      1.434703
  O       2.811734     -1.246502     -0.901217
  K       1.121205      2.893528     -1.130266
  K       3.500084     -2.945756      1.139228
7
Coordinates from ORCA-job K2SO4_DFT E -1898.305631434827
  O       0.912400      0.230809     -0.294713
  S       2.365663     -0.044467     -0.053743
  O       3.195143      1.147904     -0.425882
  O       2.577292     -0.378891      1.429391
  O       2.812449     -1.244896     -0.902175
  K       1.093275      2.956655     -1.147181
  K       3.516529     -2.992834      1.162393
7
Coordinates from ORCA-job K2SO4_DFT E -1898.311072419527
  O       0.911593      0.222405     -0.294927
  S       2.367239     -0.047449     -0.055129
  O       3.201434      1.143977     -0.426551
  O       2.576926     -0.378572      1.427393
  O       2.813308     -1.247873     -0.902473
  K       1.066356      3.022635     -1.165797
  K       3.535894     -3.040843      1.185574
7
Coordinates from ORCA-job K2SO4_DFT E -1898.316235723677
  O       0.907535      0.214827     -0.296379
  S       2.368345     -0.052271     -0.054825
  O       3.207536      1.141613     -0.426557
  O       2.577440     -0.380869      1.426253
  O       2.812913     -1.252133     -0.900744
  K       1.041175      3.090670     -1.186714
  K       3.557806     -3.087557      1.207057
7
Coordinates from ORCA-job K2SO4_DFT E -1898.321000994183
  O       0.904209      0.208230     -0.296990
  S       2.369431     -0.058070     -0.053048
  O       3.212288      1.138235     -0.425518
  O       2.577770     -0.384652      1.425729
  O       2.811936     -1.256001     -0.897775
  K       1.016502      3.159444     -1.210403
  K       3.580613     -3.132906      1.226095
7
Coordinates from ORCA-job K2SO4_DFT E -1898.325508416490
  O       0.903079      0.202735     -0.296627
  S       2.370759     -0.064148     -0.050799
  O       3.215732      1.133162     -0.424266
  O       2.577578     -0.388762      1.426375
  O       2.811593     -1.259910     -0.895053
  K       0.991110      3.228471     -1.235281
  K       3.602899     -3.177269      1.243741
7
Coordinates from ORCA-job K2SO4_DFT E -1898.329950837905
  O       0.903899      0.197324     -0.297125
  S       2.372345     -0.070619     -0.049284
  O       3.218297      1.126345     -0.424141
  O       2.577232     -0.392161      1.427818
  O       2.812483     -1.265131     -0.893109
  K       0.964647      3.298481     -1.258112
  K       3.623848     -3.219959      1.262043
7
Coordinates from ORCA-job K2SO4_DFT E -1898.334224257247
  O       0.906510      0.191410     -0.298862
  S       2.374272     -0.077619     -0.048694
  O       3.219977      1.118595     -0.424471
  O       2.577472     -0.394750      1.429681
  O       2.814058     -1.272156     -0.891918
  K       0.937247      3.369538     -1.278819
  K       3.643215     -3.260738      1.281173
7
Coordinates from ORCA-job K2SO4_DFT E -1898.338094941402
  O       0.910498      0.185197     -0.299411
  S       2.376546     -0.084696     -0.047472
  O       3.220178      1.112181     -0.421949
  O       2.579641     -0.397689      1.432604
  O       2.814909     -1.279823     -0.891222
  K       0.909599      3.440382     -1.302614
  K       3.661379     -3.301272      1.298154
7
Coordinates from ORCA-job K2SO4_DFT E -1898.341592755405
  O       0.914710      0.179461     -0.295980
  S       2.379464     -0.090940     -0.044042
  O       3.220057      1.108470     -0.416045
  O       2.583703     -0.402344      1.437143
  O       2.815496     -1.285748     -0.890405
  K       0.881447      3.508980     -1.333170
  K       3.677873     -3.343599      1.310589
7
Coordinates from ORCA-job K2SO4_DFT E -1898.344988038648
  O       0.917755      0.173550     -0.289365
  S       2.382639     -0.096360     -0.038674
  O       3.220661      1.106341     -0.409011
  O       2.588653     -0.408557      1.442600
  O       2.816706     -1.289268     -0.888954
  K       0.853300      3.575587     -1.368154
  K       3.693036     -3.387013      1.319649
7
Coordinates from ORCA-job K2SO4_DFT E -1898.348556475218
  O       0.918256      0.166196     -0.280229
  S       2.385176     -0.101500     -0.032306
  O       3.222002      1.104039     -0.401410
  O       2.593665     -0.415759      1.447499
  O       2.818649     -1.290437     -0.886896
  K       0.826827      3.641218     -1.405275
  K       3.708176     -3.429476      1.326708
7
Coordinates from ORCA-job K2SO4_DFT E -1898.348568243224
  O       0.917404      0.165234     -0.280096
  S       2.384931     -0.101566     -0.032190
  O       3.222352      1.103469     -0.401608
  O       2.593485     -0.415933      1.447306
  O       2.818692     -1.290092     -0.886860
  K       0.827510      3.641511     -1.405054
  K       3.708377     -3.428343      1.326591
7
Coordinates from ORCA-job K2SO4_DFT E -1898.348629132931
  O       0.909905      0.154959     -0.278297
  S       2.382795     -0.102621     -0.031354
  O       3.225343      1.098490     -0.402199
  O       2.591178     -0.418340      1.445884
  O       2.817499     -1.288351     -0.887444
  K       0.835169      3.644802     -1.403303
  K       3.710862     -3.414660      1.324802
7
Coordinates from ORCA-job K2SO4_DFT E -1898.348652233961
  O       0.907355      0.149931     -0.277169
  S       2.381805     -0.103771     -0.031145
  O       3.225610      1.096651     -0.401314
  O       2.590237     -0.420052      1.445715
  O       2.816132     -1.288949     -0.888338
  K       0.839334      3.647045     -1.403092
  K       3.712276     -3.406576      1.323433
7
Coordinates from ORCA-job K2SO4_DFT E -1898.348698373741
  O       0.901903      0.135831     -0.273729
  S       2.378845     -0.108473     -0.030737
  O       3.223396      1.092364     -0.397433
  O       2.588744     -0.425861      1.446098
  O       2.812132     -1.292811     -0.891474
  K       0.851975      3.654277     -1.403250
  K       3.715755     -3.381048      1.318616
7
Coordinates from ORCA-job K2SO4_DFT E -1898.348764237053
  O       0.895764      0.115300     -0.268404
  S       2.374170     -0.117688     -0.029935
  O       3.215535      1.086742     -0.391292
  O       2.588374     -0.436063      1.447493
  O       2.807520     -1.300642     -0.895786
  K       0.871440      3.667289     -1.404470
  K       3.719946     -3.340658      1.310483
7
Coordinates from ORCA-job K2SO4_DFT E -1898.349104658132
  O       0.885315      0.078977     -0.257863
  S       2.365745     -0.136736     -0.027165
  O       3.197427      1.076093     -0.381726
  O       2.588821     -0.457032      1.450153
  O       2.802255     -1.315168     -0.900963
  K       0.904643      3.699156     -1.410350
  K       3.728545     -3.271009      1.296004
7
Coordinates from ORCA-job K2SO4_DFT E -1898.350336763602
  O       0.875038      0.044960     -0.244559
  S       2.358264     -0.156960     -0.022076
  O       3.178961      1.064664     -0.372281
  O       2.589088     -0.480881      1.453460
  O       2.799620     -1.328359     -0.903364
  K       0.929255      3.748996     -1.427133
  K       3.742525     -3.218141      1.284042
7
Coordinates from ORCA-job K2SO4_DFT E -1898.351612578522
  O       0.864468      0.012402     -0.230944
  S       2.350245     -0.177713     -0.016511
  O       3.158774      1.052997     -0.363013
  O       2.589284     -0.505611      1.456787
  O       2.797774     -1.341203     -0.904861
  K       0.954794      3.798693     -1.444653
  K       3.757411     -3.165286      1.271285
7
Coordinates from ORCA-job K2SO4_DFT E -1898.352379772209
  O       0.879066      0.031470     -0.208483
  S       2.359609     -0.177732     -0.014000
  O       3.152492      1.067584     -0.341419
  O       2.589654     -0.517432      1.459439
  O       2.801181     -1.340172     -0.908040
  K       0.937863      3.802904     -1.479052
  K       3.752885     -3.192342      1.259645
7
Coordinates from ORCA-job K2SO4_DFT E -1898.352825951195
  O       0.887093      0.048308     -0.189042
  S       2.366627     -0.177042     -0.004824
  O       3.146021      1.079529     -0.319423
  O       2.596486     -0.532147      1.464978
  O       2.805308     -1.331127     -0.907234
  K       0.925485      3.800482     -1.516360
  K       3.745731     -3.213723      1.239996
7
Coordinates from ORCA-job K2SO4_DFT E -1898.353560904512
  O       0.894880      0.074262     -0.153259
  S       2.376709     -0.175113      0.019708
  O       3.134667      1.098475     -0.276568
  O       2.614356     -0.563919      1.477821
  O       2.812404     -1.306259     -0.901930
  K       0.908014      3.793004     -1.591722
  K       3.731720     -3.246169      1.194040
7
Coordinates from ORCA-job K2SO4_DFT E -1898.354227844577
  O       0.898759      0.094759     -0.116533
  S       2.384663     -0.170623      0.047957
  O       3.127695      1.115507     -0.232055
  O       2.633231     -0.595870      1.491173
  O       2.817741     -1.276117     -0.895726
  K       0.893574      3.781401     -1.669544
  K       3.717087     -3.274777      1.142817
7
Coordinates from ORCA-job K2SO4_DFT E -1898.354715309389
  O       0.904232      0.119215     -0.082466
  S       2.393343     -0.158833      0.076586
  O       3.128465      1.135799     -0.183932
  O       2.651325     -0.620854      1.504294
  O       2.821106     -1.240634     -0.889830
  K       0.875288      3.754357     -1.745853
  K       3.698991     -3.314769      1.089291
7
Coordinates from ORCA-job K2SO4_DFT E -1898.355153652895
  O       0.889160      0.077976     -0.093888
  S       2.381322     -0.175495      0.067994
  O       3.125613      1.111034     -0.218658
  O       2.642790     -0.621371      1.499878
  O       2.814862     -1.263818     -0.891748
  K       0.902874      3.795207     -1.708600
  K       3.716129     -3.249253      1.113112
7
Coordinates from ORCA-job K2SO4_DFT E -1898.355400608544
  O       0.884828      0.060191     -0.095309
  S       2.377228     -0.179135      0.069483
  O       3.129018      1.102503     -0.223693
  O       2.641503     -0.624491      1.500971
  O       2.809245     -1.269619     -0.893146
  K       0.910817      3.809243     -1.704418
  K       3.720111     -3.224412      1.114202
7
Coordinates from ORCA-job K2SO4_DFT E -1898.355535246374
  O       0.885373      0.053223     -0.096102
  S       2.376009     -0.177627      0.069524
  O       3.137105      1.099148     -0.220890
  O       2.640014     -0.623183      1.501581
  O       2.804876     -1.272201     -0.896420
  K       0.910136      3.810949     -1.703367
  K       3.719238     -3.216028      1.113765
7
Coordinates from ORCA-job K2SO4_DFT E -1898.355610332310
  O       0.889037      0.060268     -0.094646
  S       2.377887     -0.171786      0.069499
  O       3.146520      1.101821     -0.212415
  O       2.639206     -0.619382      1.502061
  O       2.805138     -1.268032     -0.899410
  K       0.901449      3.799211     -1.707455
  K       3.713513     -3.227820      1.110456
7
Coordinates from ORCA-job K2SO4_DFT E -1898.355658644565
  O       0.887178      0.052375     -0.093382
  S       2.375891     -0.177936      0.067973
  O       3.143164      1.096202     -0.215103
  O       2.638611     -0.622823      1.501343
  O       2.804073     -1.274825     -0.900423
  K       0.906812      3.812107     -1.705275
  K       3.717022     -3.210820      1.112956
7
Coordinates from ORCA-job K2SO4_DFT E -1898.355784763883
  O       0.885390      0.040274     -0.085825
  S       2.373982     -0.189349      0.068812
  O       3.139136      1.086649     -0.211091
  O       2.639418     -0.634574      1.501899
  O       2.801497     -1.284751     -0.902617
  K       0.913143      3.834943     -1.712594
  K       3.720185     -3.178912      1.109506
7
Coordinates from ORCA-job K2SO4_DFT E -1898.355806210676
  O       0.885866      0.042061     -0.086933
  S       2.374644     -0.189835      0.069071
  O       3.140504      1.085699     -0.210518
  O       2.639188     -0.635190      1.502195
  O       2.800926     -1.284966     -0.902079
  K       0.911519      3.835198     -1.712926
  K       3.720104     -3.178686      1.109280
7
Coordinates from ORCA-job K2SO4_DFT E -1898.355949351694
  O       0.896928      0.069974     -0.107086
  S       2.384179     -0.193658      0.068259
  O       3.170978      1.069109     -0.204351
  O       2.630236     -0.637461      1.505234
  O       2.792209     -1.291566     -0.897930
  K       0.881810      3.834392     -1.708279
  K       3.716410     -3.176509      1.112244
7
Coordinates from ORCA-job K2SO4_DFT E -1898.356067018200
  O       0.913860      0.104492     -0.123540
  S       2.395467     -0.194033      0.068896
  O       3.212453      1.051305     -0.191418
  O       2.616971     -0.641893      1.509260
  O       2.783148     -1.296777     -0.896364
  K       0.842673      3.828373     -1.709579
  K       3.708179     -3.177187      1.110836
7
Coordinates from ORCA-job K2SO4_DFT E -1898.356270771192
  O       0.928291      0.129137     -0.122673
  S       2.403174     -0.193582      0.074255
  O       3.242995      1.039633     -0.172866
  O       2.607259     -0.654435      1.513488
  O       2.776936     -1.298307     -0.897157
  K       0.813812      3.825031     -1.725951
  K       3.700283     -3.173197      1.098995
7
Coordinates from ORCA-job K2SO4_DFT E -1898.356398455930
  O       0.904029      0.089382     -0.107132
  S       2.388651     -0.186152      0.072255
  O       3.189496      1.069216     -0.193268
  O       2.627981     -0.636975      1.508113
  O       2.792559     -1.283997     -0.898223
  K       0.861073      3.822010     -1.719285
  K       3.708960     -3.199205      1.105629
7
Coordinates from ORCA-job K2SO4_DFT E -1898.356445843454
  O       0.898424      0.076998     -0.101498
  S       2.383640     -0.184395      0.071230
  O       3.172507      1.077591     -0.203174
  O       2.632591     -0.633118      1.505834
  O       2.799784     -1.281409     -0.898068
  K       0.874548      3.824579     -1.715892
  K       3.711256     -3.205967      1.109659
7
Coordinates from ORCA-job K2SO4_DFT E -1898.356457310908
  O       0.902348      0.081411     -0.101268
  S       2.384900     -0.183378      0.071839
  O       3.177144      1.077116     -0.204013
  O       2.630510     -0.635518      1.505905
  O       2.802177     -1.281828     -0.897176
  K       0.868364      3.823571     -1.716452
  K       3.707307     -3.207093      1.109255
7
Coordinates from ORCA-job K2SO4_DFT E -1898.356459744707
  O       0.904877      0.085550     -0.102632
  S       2.386622     -0.183331      0.072144
  O       3.182124      1.075633     -0.201712
  O       2.629967     -0.636840      1.505995
  O       2.801981     -1.282377     -0.896603
  K       0.862849      3.822417     -1.717434
  K       3.704330     -3.206771      1.108332
7
Coordinates from ORCA-job K2SO4_DFT E -1898.356463605973
  O       0.906097      0.086150     -0.102839
  S       2.387664     -0.183822      0.072320
  O       3.183676      1.075128     -0.200754
  O       2.631074     -0.638174      1.505633
  O       2.802938     -1.283062     -0.895907
  K       0.860030      3.823332     -1.718238
  K       3.701271     -3.205270      1.107877
7
Coordinates from ORCA-job K2SO4_DFT E -1898.356467065174
  O       0.903831      0.084434     -0.103129
  S       2.386195     -0.182406      0.071526
  O       3.180073      1.077333     -0.203338
  O       2.630819     -0.634868      1.505228
  O       2.802821     -1.281555     -0.896192
  K       0.864291      3.821624     -1.715842
  K       3.704720     -3.210282      1.109838
7
Coordinates from ORCA-job K2SO4_DFT E -1898.356487818630
  O       0.898391      0.079227     -0.103848
  S       2.382673     -0.178904      0.069327
  O       3.170445      1.083489     -0.209941
  O       2.631409     -0.626630      1.503772
  O       2.803449     -1.278234     -0.896540
  K       0.874301      3.818682     -1.709973
  K       3.712082     -3.223350      1.115295
7
Coordinates from ORCA-job K2SO4_DFT E -1898.356509832945
  O       0.893342      0.073758     -0.104630
  S       2.379332     -0.175489      0.067097
  O       3.160633      1.089956     -0.216224
  O       2.632815     -0.618477      1.502270
  O       2.804474     -1.275167     -0.896757
  K       0.883548      3.816600     -1.704555
  K       3.718606     -3.236901      1.120890
7
Coordinates from ORCA-job K2SO4_DFT E -1898.356542209024
  O       0.886974      0.065995     -0.105113
  S       2.374987     -0.171949      0.064485
  O       3.147587      1.097672     -0.223753
  O       2.635072     -0.608840      1.500550
  O       2.805756     -1.271666     -0.897137
  K       0.895471      3.815731     -1.698607
  K       3.726904     -3.252662      1.127665
