## avogadro generated ORCA input file 
# Advanced Mode
# 
! B3LYP OPT def2-SVP NormalPrint defgrid2 NormalSCF 

! CPCM
%cpcm
epsilon 69.0
refrac 1.34
end

%scf
	MaxIter 125
	CNVDIIS 1
	CNVSOSCF 1 
end

* xyz 0 1
   C       -1.39938       -0.07701       -0.00209
   C       -0.76415        1.16039        0.00885
   C        0.62139        1.18599        0.01763
   N        1.39347        0.07748        0.01620
   C        0.74844       -1.10942        0.00549
   C       -0.63147       -1.23679       -0.00383
   H       -2.48382       -0.13699       -0.00919
   H       -1.33392        2.08257        0.01049
   H        1.16361        2.12708        0.02631
   H        1.39120       -1.98496        0.00456
   H       -1.09599       -2.21617       -0.01225
*

