9
Coordinates from ORCA-job Imidazole_DFT E -225.934931697997
  C      -1.189100      0.003010      0.000070
  C      -0.343140      1.086610     -0.000130
  N       0.966040      0.679880      0.000070
  C       0.921360     -0.632440      0.000380
  N      -0.366040     -1.088990      0.000400
  H      -2.266100     -0.082240      0.000010
  H      -0.605570      2.136700     -0.000400
  H       1.775370     -1.296540      0.000610
  H      -0.650470     -2.058760      0.000610
9
Coordinates from ORCA-job Imidazole_DFT E -225.935307461351
  C      -1.188782      0.005086      0.000071
  C      -0.344749      1.095116     -0.000131
  N       0.968039      0.681996      0.000064
  C       0.923392     -0.636703      0.000386
  N      -0.361730     -1.091485      0.000398
  H      -2.273096     -0.083049      0.000012
  H      -0.613223      2.152584     -0.000405
  H       1.782045     -1.309825      0.000616
  H      -0.649546     -2.066490      0.000608
9
Coordinates from ORCA-job Imidazole_DFT E -225.935322425790
  C      -1.188508      0.005288      0.000070
  C      -0.344424      1.096132     -0.000131
  N       0.969644      0.682834      0.000071
  C       0.923238     -0.636927      0.000382
  N      -0.360316     -1.091326      0.000401
  H      -2.272839     -0.084015      0.000009
  H      -0.615307      2.152802     -0.000406
  H       1.780323     -1.311984      0.000612
  H      -0.649460     -2.065573      0.000612
9
Coordinates from ORCA-job Imidazole_DFT E -225.935326578798
  C      -1.188216      0.005533      0.000071
  C      -0.343883      1.096293     -0.000130
  N       0.970904      0.683405      0.000061
  C       0.923218     -0.636724      0.000388
  N      -0.359202     -1.090891      0.000397
  H      -2.272277     -0.084758      0.000013
  H      -0.617079      2.152129     -0.000405
  H       1.778954     -1.313230      0.000618
  H      -0.650069     -2.064528      0.000607
9
Coordinates from ORCA-job Imidazole_DFT E -225.935327031494
  C      -1.188097      0.005655      0.000069
  C      -0.343641      1.096173     -0.000132
  N       0.971076      0.683463      0.000076
  C       0.923369     -0.636610      0.000380
  N      -0.358969     -1.090801      0.000401
  H      -2.272077     -0.084926      0.000008
  H      -0.617582      2.151820     -0.000407
  H       1.778894     -1.313354      0.000609
  H      -0.650623     -2.064191      0.000615
