2
Coordinates from ORCA-job KCl_DFT E -1059.771146784051
  Cl     -0.208360      0.629440     -0.338310
  K       2.200390     -0.695500      0.214730
2
Coordinates from ORCA-job KCl_DFT E -1059.772998306277
  Cl     -0.225530      0.638884     -0.342252
  K       2.217560     -0.704944      0.218672
2
Coordinates from ORCA-job KCl_DFT E -1059.779104668540
  Cl     -0.293714      0.676389     -0.357907
  K       2.285744     -0.742449      0.234327
2
Coordinates from ORCA-job KCl_DFT E -1059.784987403853
  Cl     -0.361897      0.713894     -0.373562
  K       2.353927     -0.779954      0.249982
2
Coordinates from ORCA-job KCl_DFT E -1059.791851149098
  Cl     -0.430081      0.751398     -0.389216
  K       2.422111     -0.817458      0.265636
2
Coordinates from ORCA-job KCl_DFT E -1059.798613252301
  Cl     -0.498264      0.788903     -0.404871
  K       2.490294     -0.854963      0.281291
2
Coordinates from ORCA-job KCl_DFT E -1059.803966455233
  Cl     -0.566447      0.826407     -0.420526
  K       2.558477     -0.892467      0.296946
2
Coordinates from ORCA-job KCl_DFT E -1059.809094277044
  Cl     -0.634631      0.863912     -0.436180
  K       2.626661     -0.929972      0.312600
2
Coordinates from ORCA-job KCl_DFT E -1059.815878016287
  Cl     -0.702814      0.901416     -0.451835
  K       2.694844     -0.967476      0.328255
2
Coordinates from ORCA-job KCl_DFT E -1059.823965163200
  Cl     -0.770998      0.938921     -0.467490
  K       2.763028     -1.004981      0.343910
2
Coordinates from ORCA-job KCl_DFT E -1059.832053956072
  Cl     -0.839181      0.976425     -0.483144
  K       2.831211     -1.042485      0.359564
2
Coordinates from ORCA-job KCl_DFT E -1059.839528428490
  Cl     -0.907365      1.013930     -0.498799
  K       2.899395     -1.079990      0.375219
2
Coordinates from ORCA-job KCl_DFT E -1059.846706125179
  Cl     -0.975548      1.051434     -0.514454
  K       2.967578     -1.117494      0.390874
2
Coordinates from ORCA-job KCl_DFT E -1059.854493530572
  Cl     -1.043732      1.088939     -0.530108
  K       3.035762     -1.154999      0.406528
2
Coordinates from ORCA-job KCl_DFT E -1059.863383843346
  Cl     -1.111915      1.126443     -0.545763
  K       3.103945     -1.192503      0.422183
2
Coordinates from ORCA-job KCl_DFT E -1059.870968045480
  Cl     -1.180099      1.163948     -0.561418
  K       3.172129     -1.230008      0.437838
2
Coordinates from ORCA-job KCl_DFT E -1059.876780398660
  Cl     -1.248282      1.201452     -0.577072
  K       3.240312     -1.267512      0.453492
2
Coordinates from ORCA-job KCl_DFT E -1059.880905733438
  Cl     -1.316466      1.238957     -0.592727
  K       3.308496     -1.305017      0.469147
2
Coordinates from ORCA-job KCl_DFT E -1059.883297057941
  Cl     -1.384649      1.276461     -0.608382
  K       3.376679     -1.342521      0.484802
2
Coordinates from ORCA-job KCl_DFT E -1059.884886715863
  Cl     -1.452832      1.313966     -0.624036
  K       3.444862     -1.380026      0.500456
2
Coordinates from ORCA-job KCl_DFT E -1059.886059862406
  Cl     -1.521016      1.351470     -0.639691
  K       3.513046     -1.417530      0.516111
2
Coordinates from ORCA-job KCl_DFT E -1059.886908357727
  Cl     -1.589199      1.388975     -0.655346
  K       3.581229     -1.455035      0.531766
2
Coordinates from ORCA-job KCl_DFT E -1059.887535455395
  Cl     -1.657383      1.426479     -0.671000
  K       3.649413     -1.492539      0.547420
2
Coordinates from ORCA-job KCl_DFT E -1059.887995115035
  Cl     -1.725566      1.463984     -0.686655
  K       3.717596     -1.530044      0.563075
2
Coordinates from ORCA-job KCl_DFT E -1059.888306796639
  Cl     -1.793750      1.501488     -0.702310
  K       3.785780     -1.567548      0.578730
2
Coordinates from ORCA-job KCl_DFT E -1059.888511647271
  Cl     -1.861933      1.538993     -0.717964
  K       3.853963     -1.605053      0.594384
2
Coordinates from ORCA-job KCl_DFT E -1059.888640833581
  Cl     -1.930117      1.576497     -0.733619
  K       3.922147     -1.642557      0.610039
2
Coordinates from ORCA-job KCl_DFT E -1059.888714055682
  Cl     -1.998300      1.614002     -0.749274
  K       3.990330     -1.680062      0.625694
2
Coordinates from ORCA-job KCl_DFT E -1059.888731525654
  Cl     -2.061716      1.648884     -0.763834
  K       4.053746     -1.714944      0.640254
2
Coordinates from ORCA-job KCl_DFT E -1059.888731871413
  Cl     -2.059245      1.647525     -0.763266
  K       4.051275     -1.713585      0.639686
2
Coordinates from ORCA-job KCl_DFT E -1059.888731824034
  Cl     -2.059627      1.647735     -0.763354
  K       4.051657     -1.713795      0.639774
