2
Coordinates from ORCA-job NaCl_DFT E -622.190911294583
  Na      0.876200     -0.200550      1.182610
  Cl      1.258190      0.326120     -1.131850
2
Coordinates from ORCA-job NaCl_DFT E -622.192111143092
  Na      0.874088     -0.203461      1.195404
  Cl      1.260302      0.329031     -1.144644
2
Coordinates from ORCA-job NaCl_DFT E -622.197707380754
  Na      0.861477     -0.220850      1.271818
  Cl      1.272913      0.346420     -1.221058
2
Coordinates from ORCA-job NaCl_DFT E -622.202253644387
  Na      0.848865     -0.238239      1.348233
  Cl      1.285525      0.363809     -1.297473
2
Coordinates from ORCA-job NaCl_DFT E -622.206789298147
  Na      0.836253     -0.255627      1.424648
  Cl      1.298137      0.381197     -1.373888
2
Coordinates from ORCA-job NaCl_DFT E -622.213580033927
  Na      0.823641     -0.273016      1.501063
  Cl      1.310749      0.398586     -1.450303
2
Coordinates from ORCA-job NaCl_DFT E -622.223514355287
  Na      0.811029     -0.290405      1.577477
  Cl      1.323361      0.415975     -1.526717
2
Coordinates from ORCA-job NaCl_DFT E -622.235051540477
  Na      0.798417     -0.307793      1.653892
  Cl      1.335973      0.433363     -1.603132
2
Coordinates from ORCA-job NaCl_DFT E -622.247725087935
  Na      0.785805     -0.325182      1.730307
  Cl      1.348585      0.450752     -1.679547
2
Coordinates from ORCA-job NaCl_DFT E -622.259928030152
  Na      0.773194     -0.342571      1.806722
  Cl      1.361196      0.468141     -1.755962
2
Coordinates from ORCA-job NaCl_DFT E -622.272153657089
  Na      0.760582     -0.359959      1.883136
  Cl      1.373808      0.485529     -1.832376
2
Coordinates from ORCA-job NaCl_DFT E -622.284638721109
  Na      0.747970     -0.377348      1.959551
  Cl      1.386420      0.502918     -1.908791
2
Coordinates from ORCA-job NaCl_DFT E -622.297597055217
  Na      0.735358     -0.394737      2.035966
  Cl      1.399032      0.520307     -1.985206
2
Coordinates from ORCA-job NaCl_DFT E -622.309568390158
  Na      0.722746     -0.412125      2.112381
  Cl      1.411644      0.537695     -2.061621
2
Coordinates from ORCA-job NaCl_DFT E -622.321286379995
  Na      0.710134     -0.429514      2.188796
  Cl      1.424256      0.555084     -2.138036
2
Coordinates from ORCA-job NaCl_DFT E -622.331771977945
  Na      0.697522     -0.446903      2.265210
  Cl      1.436868      0.572473     -2.214450
2
Coordinates from ORCA-job NaCl_DFT E -622.337988816012
  Na      0.684910     -0.464291      2.341625
  Cl      1.449480      0.589861     -2.290865
2
Coordinates from ORCA-job NaCl_DFT E -622.341633645572
  Na      0.672299     -0.481680      2.418040
  Cl      1.462091      0.607250     -2.367280
2
Coordinates from ORCA-job NaCl_DFT E -622.344143236173
  Na      0.659687     -0.499069      2.494455
  Cl      1.474703      0.624639     -2.443695
2
Coordinates from ORCA-job NaCl_DFT E -622.345872321137
  Na      0.647075     -0.516457      2.570869
  Cl      1.487315      0.642027     -2.520109
2
Coordinates from ORCA-job NaCl_DFT E -622.347021198824
  Na      0.634463     -0.533846      2.647284
  Cl      1.499927      0.659416     -2.596524
2
Coordinates from ORCA-job NaCl_DFT E -622.347756441089
  Na      0.621851     -0.551235      2.723699
  Cl      1.512539      0.676805     -2.672939
2
Coordinates from ORCA-job NaCl_DFT E -622.348170866191
  Na      0.609239     -0.568623      2.800114
  Cl      1.525151      0.694193     -2.749354
2
Coordinates from ORCA-job NaCl_DFT E -622.348318175821
  Na      0.598549     -0.583363      2.864887
  Cl      1.535841      0.708933     -2.814127
2
Coordinates from ORCA-job NaCl_DFT E -622.348339275843
  Na      0.594121     -0.589467      2.891714
  Cl      1.540269      0.715037     -2.840954
2
Coordinates from ORCA-job NaCl_DFT E -622.348343779046
  Na      0.591877     -0.592561      2.905310
  Cl      1.542513      0.718131     -2.854550
2
Coordinates from ORCA-job NaCl_DFT E -622.348344442096
  Na      0.591229     -0.593455      2.909239
  Cl      1.543161      0.719025     -2.858479
2
Coordinates from ORCA-job NaCl_DFT E -622.348344506442
  Na      0.591148     -0.593567      2.909728
  Cl      1.543242      0.719137     -2.858968
