7
Coordinates from ORCA-job Na2SO4_DFT E -1023.086609597971
  O       0.940290      0.078100      0.726400
  S       2.221730      0.182930      0.027260
  O       3.141760     -0.667960      0.783180
  O       2.112390     -0.245830     -1.367760
  O       2.692450      1.567370     -0.032800
  Na      1.678910     -1.252530      2.212180
  Na      2.764100      1.618220     -2.157880
7
Coordinates from ORCA-job Na2SO4_DFT E -1023.103139052870
  O       0.912951      0.078182      0.739657
  S       2.222652      0.186431      0.027167
  O       3.159898     -0.684377      0.798934
  O       2.115745     -0.255230     -1.384115
  O       2.705687      1.588722     -0.031801
  Na      1.670448     -1.271266      2.232544
  Na      2.764248      1.637837     -2.191806
7
Coordinates from ORCA-job Na2SO4_DFT E -1023.119643810498
  O       0.877771      0.081414      0.754369
  S       2.224501      0.190083      0.027215
  O       3.186363     -0.704547      0.817602
  O       2.115014     -0.270567     -1.401524
  O       2.717748      1.614779     -0.024700
  Na      1.657752     -1.304156      2.270566
  Na      2.772481      1.673294     -2.252948
7
Coordinates from ORCA-job Na2SO4_DFT E -1023.130378032487
  O       0.854530      0.087334      0.762411
  S       2.225664      0.192120      0.027998
  O       3.205580     -0.715098      0.828873
  O       2.113117     -0.284606     -1.407593
  O       2.724358      1.628221     -0.014970
  Na      1.645466     -1.337944      2.309276
  Na      2.782915      1.710274     -2.315415
7
Coordinates from ORCA-job Na2SO4_DFT E -1023.140003282898
  O       0.842204      0.094165      0.764195
  S       2.226227      0.192855      0.029582
  O       3.217647     -0.717817      0.833138
  O       2.109643     -0.296798     -1.404229
  O       2.725964      1.631326     -0.002943
  Na      1.634355     -1.370734      2.347997
  Na      2.795590      1.747303     -2.377159
7
Coordinates from ORCA-job Na2SO4_DFT E -1023.150018821546
  O       0.841516      0.100962      0.759513
  S       2.226101      0.192227      0.032074
  O       3.221197     -0.713201      0.830092
  O       2.105329     -0.307333     -1.392464
  O       2.723327      1.624827      0.011683
  Na      1.624735     -1.400870      2.386177
  Na      2.809426      1.783688     -2.436494
7
Coordinates from ORCA-job Na2SO4_DFT E -1023.159622043762
  O       0.852272      0.106442      0.750257
  S       2.225143      0.189955      0.035743
  O       3.215534     -0.702567      0.821389
  O       2.100517     -0.316549     -1.375613
  O       2.717535      1.611717      0.028402
  Na      1.616591     -1.427834      2.423446
  Na      2.824038      1.819136     -2.493045
7
Coordinates from ORCA-job Na2SO4_DFT E -1023.167425878343
  O       0.861026      0.109075      0.745015
  S       2.223712      0.187038      0.040012
  O       3.209977     -0.695230      0.816080
  O       2.095001     -0.325343     -1.364188
  O       2.712450      1.603889      0.043368
  Na      1.608755     -1.455169      2.462369
  Na      2.840710      1.856041     -2.552077
7
Coordinates from ORCA-job Na2SO4_DFT E -1023.174358452321
  O       0.863437      0.109430      0.745006
  S       2.222019      0.183921      0.044356
  O       3.207846     -0.693480      0.815775
  O       2.089856     -0.333564     -1.358491
  O       2.709090      1.601635      0.054965
  Na      1.600754     -1.483033      2.503002
  Na      2.858628      1.895391     -2.614034
7
Coordinates from ORCA-job Na2SO4_DFT E -1023.180826016572
  O       0.862080      0.107911      0.748271
  S       2.220213      0.179986      0.048984
  O       3.207288     -0.695835      0.819100
  O       2.086716     -0.340736     -1.355607
  O       2.707558      1.600719      0.062816
  Na      1.591969     -1.509843      2.544793
  Na      2.875806      1.938098     -2.677776
7
Coordinates from ORCA-job Na2SO4_DFT E -1023.186926256775
  O       0.859768      0.104985      0.752723
  S       2.218900      0.175014      0.054244
  O       3.206851     -0.700593      0.825037
  O       2.086404     -0.346457     -1.352812
  O       2.708057      1.598173      0.067359
  Na      1.581405     -1.534877      2.586721
  Na      2.890245      1.984056     -2.742693
7
Coordinates from ORCA-job Na2SO4_DFT E -1023.192748220402
  O       0.858130      0.101136      0.757054
  S       2.218466      0.169260      0.060230
  O       3.206170     -0.706287      0.832744
  O       2.088173     -0.350767     -1.348817
  O       2.710193      1.593318      0.069983
  Na      1.568863     -1.558299      2.627739
  Na      2.901635      2.031938     -2.808352
7
Coordinates from ORCA-job Na2SO4_DFT E -1023.198365348473
  O       0.857440      0.096707      0.761103
  S       2.218756      0.163053      0.066806
  O       3.205523     -0.712264      0.841268
  O       2.090571     -0.353917     -1.343698
  O       2.712672      1.586894      0.072107
  Na      1.555180     -1.580529      2.667499
  Na      2.911488      2.080354     -2.874505
7
Coordinates from ORCA-job Na2SO4_DFT E -1023.203802555273
  O       0.857483      0.092279      0.765137
  S       2.219711      0.157038      0.074005
  O       3.205284     -0.718451      0.849781
  O       2.092829     -0.356750     -1.337311
  O       2.714737      1.580657      0.074707
  Na      1.540809     -1.602525      2.705467
  Na      2.920777      2.128052     -2.941206
7
Coordinates from ORCA-job Na2SO4_DFT E -1023.209095737707
  O       0.858035      0.088613      0.769275
  S       2.221468      0.151944      0.081850
  O       3.205715     -0.724575      0.857921
  O       2.094961     -0.360552     -1.329451
  O       2.716898      1.576289      0.078611
  Na      1.525434     -1.625441      2.740879
  Na      2.929119      2.174022     -3.008505
7
Coordinates from ORCA-job Na2SO4_DFT E -1023.214292417439
  O       0.859110      0.086191      0.773447
  S       2.223947      0.147699      0.089997
  O       3.206785     -0.730178      0.865566
  O       2.097250     -0.366356     -1.320665
  O       2.719665      1.573678      0.084417
  Na      1.508881     -1.649103      2.773701
  Na      2.935991      2.218368     -3.075883
7
Coordinates from ORCA-job Na2SO4_DFT E -1023.219336155433
  O       0.860503      0.084953      0.778192
  S       2.226415      0.143914      0.098081
  O       3.208324     -0.734805      0.872275
  O       2.099264     -0.374043     -1.311876
  O       2.722059      1.571916      0.092247
  Na      1.492246     -1.673016      2.804606
  Na      2.942818      2.261381     -3.142945
7
Coordinates from ORCA-job Na2SO4_DFT E -1023.224194207611
  O       0.861686      0.084396      0.784415
  S       2.227787      0.140246      0.105856
  O       3.210021     -0.738245      0.877644
  O       2.100328     -0.382434     -1.303873
  O       2.722516      1.569953      0.101503
  Na      1.477297     -1.696968      2.834722
  Na      2.951994      2.303352     -3.209687
7
Coordinates from ORCA-job Na2SO4_DFT E -1023.228885058639
  O       0.862173      0.083418      0.791725
  S       2.227771      0.136266      0.113155
  O       3.211742     -0.740619      0.882254
  O       2.100046     -0.390416     -1.297406
  O       2.721367      1.566865      0.111839
  Na      1.464610     -1.720194      2.865131
  Na      2.963920      2.344979     -3.276119
7
Coordinates from ORCA-job Na2SO4_DFT E -1023.233366926204
  O       0.861733      0.080952      0.799333
  S       2.226599      0.132226      0.120276
  O       3.213482     -0.741976      0.886730
  O       2.097717     -0.396881     -1.291928
  O       2.719536      1.563041      0.123105
  Na      1.454156     -1.742988      2.895784
  Na      2.978407      2.385926     -3.342720
7
Coordinates from ORCA-job Na2SO4_DFT E -1023.237549786392
  O       0.860559      0.077108      0.806853
  S       2.224764      0.128584      0.127791
  O       3.214868     -0.742794      0.891628
  O       2.094413     -0.401361     -1.285806
  O       2.718293      1.559216      0.134235
  Na      1.444806     -1.766420      2.926016
  Na      2.993928      2.425966     -3.410138
7
Coordinates from ORCA-job Na2SO4_DFT E -1023.241543639596
  O       0.859192      0.072892      0.813718
  S       2.223193      0.124957      0.135882
  O       3.215508     -0.744128      0.898104
  O       2.092978     -0.404836     -1.278410
  O       2.719589      1.555015      0.143818
  Na      1.434097     -1.790203      2.955801
  Na      3.007073      2.466603     -3.478333
7
Coordinates from ORCA-job Na2SO4_DFT E -1023.245523000209
  O       0.858157      0.068877      0.819586
  S       2.222652      0.120916      0.144447
  O       3.215639     -0.746657      0.906604
  O       2.093821     -0.408252     -1.270063
  O       2.723297      1.550418      0.151745
  Na      1.421207     -1.813527      2.985061
  Na      3.016857      2.508525     -3.546800
7
Coordinates from ORCA-job Na2SO4_DFT E -1023.249277277335
  O       0.857562      0.065033      0.825027
  S       2.223067      0.116627      0.153613
  O       3.215634     -0.750253      0.916567
  O       2.094941     -0.411083     -1.261132
  O       2.727255      1.546333      0.158604
  Na      1.407580     -1.837037      3.013643
  Na      3.025592      2.550680     -3.615742
7
Coordinates from ORCA-job Na2SO4_DFT E -1023.252540562596
  O       0.857189      0.061627      0.831776
  S       2.223489      0.112413      0.163529
  O       3.215416     -0.754438      0.926710
  O       2.094781     -0.412210     -1.252270
  O       2.728551      1.543459      0.164310
  Na      1.395506     -1.862312      3.042057
  Na      3.036699      2.591762     -3.685532
7
Coordinates from ORCA-job Na2SO4_DFT E -1023.255556293698
  O       0.856542      0.059059      0.840487
  S       2.223006      0.108500      0.173929
  O       3.214402     -0.758669      0.935939
  O       2.094224     -0.412065     -1.244235
  O       2.727107      1.541245      0.169312
  Na      1.385718     -1.889389      3.070889
  Na      3.050632      2.631619     -3.755741
7
Coordinates from ORCA-job Na2SO4_DFT E -1023.258685013234
  O       0.856747      0.056986      0.849554
  S       2.223784      0.104423      0.185182
  O       3.213891     -0.763501      0.947315
  O       2.094089     -0.410694     -1.235416
  O       2.726113      1.539783      0.172164
  Na      1.373970     -1.917953      3.098597
  Na      3.063036      2.671256     -3.826816
7
Coordinates from ORCA-job Na2SO4_DFT E -1023.258691047560
  O       0.856726      0.057027      0.849429
  S       2.223901      0.104441      0.185516
  O       3.213112     -0.763972      0.946930
  O       2.094369     -0.410613     -1.235917
  O       2.725456      1.539477      0.172265
  Na      1.374665     -1.917523      3.099086
  Na      3.063401      2.671463     -3.826729
7
Coordinates from ORCA-job Na2SO4_DFT E -1023.258700931922
  O       0.855816      0.056949      0.848802
  S       2.223984      0.104436      0.186494
  O       3.210467     -0.765921      0.945904
  O       2.095169     -0.410047     -1.237807
  O       2.723468      1.538545      0.172704
  Na      1.377731     -1.915933      3.101030
  Na      3.064995      2.672270     -3.826546
7
Coordinates from ORCA-job Na2SO4_DFT E -1023.258703587353
  O       0.854972      0.056678      0.848186
  S       2.223792      0.104295      0.186784
  O       3.209275     -0.767126      0.945798
  O       2.095381     -0.409388     -1.238460
  O       2.722861      1.538326      0.172820
  Na      1.379499     -1.915188      3.102056
  Na      3.065850      2.672703     -3.826603
7
Coordinates from ORCA-job Na2SO4_DFT E -1023.258729494220
  O       0.849666      0.053993      0.842880
  S       2.222732      0.102648      0.188684
  O       3.201489     -0.776283      0.946655
  O       2.096792     -0.403706     -1.241179
  O       2.719987      1.537492      0.172504
  Na      1.390255     -1.910543      3.109489
  Na      3.070709      2.676701     -3.828454
7
Coordinates from ORCA-job Na2SO4_DFT E -1023.258740043257
  O       0.847954      0.053236      0.839423
  S       2.222706      0.101097      0.189307
  O       3.197646     -0.780720      0.948961
  O       2.098864     -0.401046     -1.241616
  O       2.720590      1.536598      0.171644
  Na      1.393335     -1.908456      3.112756
  Na      3.070535      2.679591     -3.829895
7
Coordinates from ORCA-job Na2SO4_DFT E -1023.258772606816
  O       0.848014      0.055195      0.838053
  S       2.222357      0.100607      0.188002
  O       3.196795     -0.779371      0.950218
  O       2.102172     -0.403322     -1.241867
  O       2.724281      1.534467      0.173348
  Na      1.391555     -1.907415      3.111668
  Na      3.066456      2.680139     -3.828841
7
Coordinates from ORCA-job Na2SO4_DFT E -1023.260189811080
  O       0.820980      0.047319      0.832786
  S       2.195768      0.102197      0.178671
  O       3.179236     -0.773497      0.920766
  O       2.086761     -0.416154     -1.258477
  O       2.706697      1.514408      0.224152
  Na      1.447329     -1.893062      3.144137
  Na      3.114860      2.699088     -3.851454
7
Coordinates from ORCA-job Na2SO4_DFT E -1023.261271986308
  O       0.806214      0.043943      0.805812
  S       2.190601      0.089709      0.177606
  O       3.150692     -0.801689      0.936833
  O       2.105882     -0.405367     -1.261863
  O       2.720052      1.503025      0.228246
  Na      1.468221     -1.874715      3.169169
  Na      3.109968      2.725393     -3.865223
7
Coordinates from ORCA-job Na2SO4_DFT E -1023.262813065517
  O       0.783570      0.034925      0.778025
  S       2.178639      0.076569      0.177095
  O       3.116256     -0.832087      0.946991
  O       2.117202     -0.395255     -1.267790
  O       2.724814      1.487165      0.245625
  Na      1.506380     -1.855988      3.209478
  Na      3.124768      2.764971     -3.898844
7
Coordinates from ORCA-job Na2SO4_DFT E -1023.264147634109
  O       0.762095      0.024618      0.753530
  S       2.166691      0.064832      0.177281
  O       3.084822     -0.860136      0.953718
  O       2.123601     -0.386562     -1.273454
  O       2.724939      1.472201      0.265386
  Na      1.544948     -1.839006      3.249561
  Na      3.144533      2.804353     -3.935442
7
Coordinates from ORCA-job Na2SO4_DFT E -1023.265716037506
  O       0.749568      0.018977      0.741575
  S       2.159463      0.055015      0.181044
  O       3.064777     -0.880743      0.961023
  O       2.128988     -0.383547     -1.273604
  O       2.723026      1.461196      0.281624
  Na      1.563704     -1.839341      3.289012
  Na      3.162103      2.848743     -3.990094
7
Coordinates from ORCA-job Na2SO4_DFT E -1023.267265360273
  O       0.748369      0.019089      0.745763
  S       2.158866      0.049268      0.188464
  O       3.060825     -0.890466      0.967836
  O       2.132490     -0.386528     -1.267520
  O       2.719425      1.457933      0.289193
  Na      1.556993     -1.860609      3.323200
  Na      3.174663      2.891613     -4.056355
7
Coordinates from ORCA-job Na2SO4_DFT E -1023.268517647129
  O       0.750496      0.019811      0.755747
  S       2.160197      0.046369      0.196801
  O       3.063741     -0.893501      0.973896
  O       2.133177     -0.391130     -1.259444
  O       2.716379      1.457578      0.293786
  Na      1.541707     -1.889871      3.353933
  Na      3.185933      2.931044     -4.124138
7
Coordinates from ORCA-job Na2SO4_DFT E -1023.269544875798
  O       0.753187      0.019674      0.767258
  S       2.161912      0.044946      0.205324
  O       3.068981     -0.893308      0.979979
  O       2.131742     -0.395353     -1.250875
  O       2.714210      1.458139      0.297568
  Na      1.524253     -1.922309      3.383518
  Na      3.197345      2.968511     -4.192191
7
Coordinates from ORCA-job Na2SO4_DFT E -1023.270448847264
  O       0.756473      0.018910      0.780120
  S       2.163769      0.044618      0.213810
  O       3.075923     -0.890472      0.985935
  O       2.128675     -0.399332     -1.241874
  O       2.712552      1.459343      0.300888
  Na      1.505296     -1.957037      3.411921
  Na      3.208942      3.004271     -4.260221
7
Coordinates from ORCA-job Na2SO4_DFT E -1023.271239749327
  O       0.765370      0.019511      0.801531
  S       2.168191      0.047631      0.223032
  O       3.092073     -0.878977      0.990469
  O       2.121827     -0.405114     -1.230390
  O       2.710002      1.464939      0.299767
  Na      1.475866     -2.000119      3.431959
  Na      3.218301      3.032429     -4.325789
7
Coordinates from ORCA-job Na2SO4_DFT E -1023.271590217284
  O       0.787822      0.022612      0.840071
  S       2.179230      0.058652      0.232134
  O       3.129407     -0.848033      0.990322
  O       2.104789     -0.412923     -1.214963
  O       2.704693      1.482223      0.284410
  Na      1.426520     -2.052870      3.422272
  Na      3.219170      3.030639     -4.363665
7
Coordinates from ORCA-job Na2SO4_DFT E -1023.271960516494
  O       0.811083      0.023650      0.879061
  S       2.190219      0.069563      0.241645
  O       3.166562     -0.816201      0.991481
  O       2.085747     -0.418354     -1.198380
  O       2.699595      1.499751      0.266394
  Na      1.377688     -2.105670      3.410763
  Na      3.220736      3.027560     -4.400385
7
Coordinates from ORCA-job Na2SO4_DFT E -1023.272020920332
  O       0.812114      0.028368      0.875599
  S       2.191639      0.067246      0.241497
  O       3.162343     -0.820143      0.998862
  O       2.098707     -0.419226     -1.196905
  O       2.708344      1.497292      0.262944
  Na      1.368763     -2.107408      3.414192
  Na      3.209719      3.034170     -4.405609
7
Coordinates from ORCA-job Na2SO4_DFT E -1023.272059098394
  O       0.812642      0.028267      0.874239
  S       2.192839      0.067600      0.241416
  O       3.161297     -0.822064      1.001062
  O       2.100661     -0.416954     -1.196654
  O       2.710266      1.499009      0.258315
  Na      1.366251     -2.110402      3.417978
  Na      3.207673      3.034843     -4.405777
7
Coordinates from ORCA-job Na2SO4_DFT E -1023.272176342469
  O       0.813203      0.029273      0.869588
  S       2.194109      0.068955      0.238946
  O       3.156615     -0.825025      1.004566
  O       2.106709     -0.412939     -1.198183
  O       2.715630      1.501398      0.247994
  Na      1.361645     -2.119344      3.433384
  Na      3.203718      3.037982     -4.405716
7
Coordinates from ORCA-job Na2SO4_DFT E -1023.272458059479
  O       0.814409      0.031284      0.859327
  S       2.195173      0.073773      0.229811
  O       3.147642     -0.826987      1.005581
  O       2.114503     -0.405696     -1.205442
  O       2.723199      1.506903      0.226037
  Na      1.355674     -2.141250      3.474756
  Na      3.201029      3.042274     -4.399491
7
Coordinates from ORCA-job Na2SO4_DFT E -1023.272904737319
  O       0.818068      0.034932      0.845130
  S       2.196496      0.082242      0.212975
  O       3.138260     -0.824835      1.001081
  O       2.121683     -0.397567     -1.218995
  O       2.730970      1.515757      0.193161
  Na      1.346290     -2.175776      3.540787
  Na      3.199862      3.045548     -4.383559
