## avogadro generated ORCA input file 
# Advanced Mode
# 
! B3LYP OPT def2-SVP NormalPrint defgrid2 NormalSCF 

! CPCM
%cpcm
epsilon 69.0
refrac 1.34
end

%scf
	MaxIter 125
	CNVDIIS 1
	CNVSOSCF 1 
end

* xyz -2 1
   O        1.22699       -0.35236       -0.51172
   S        2.69438       -0.26533       -0.37923
   O        3.57892       -0.77816       -1.35021
   O        2.66737        1.16041        0.00143
   O        2.68771       -0.73374        1.02038
  Fe        1.26574        0.56298        1.18903
*

