## avogadro generated ORCA input file 
# Advanced Mode
# 
! B3LYP OPT def2-SVP NormalPrint defgrid2 NormalSCF 

! CPCM
%cpcm
epsilon 69.0
refrac 1.34
end

%scf
	MaxIter 125
	CNVDIIS 1
	CNVSOSCF 1 
end

* xyz 0 1
  Cl        1.07462        0.02040        0.07533
   H        2.38044        0.02040        0.07533
*

