22
Coordinates from ORCA-job Et3N_DFT E -291.992284653559
  C       1.689640      0.625040      0.701230
  C       2.557520     -0.628480      0.772810
  N       2.759270     -1.241970     -0.554930
  C       1.559140     -1.996870     -0.966960
  C       1.509360     -2.218680     -2.476250
  C       3.947860     -2.117860     -0.548090
  C       5.248540     -1.322800     -0.623820
  H       2.102480      1.347700     -0.010730
  H       1.653930      1.108040      1.683540
  H       0.659530      0.403700      0.409030
  H       3.514130     -0.309830      1.200470
  H       2.127240     -1.348550      1.480390
  H       1.495010     -2.957100     -0.439550
  H       0.648700     -1.443820     -0.712500
  H       2.307840     -2.877540     -2.828130
  H       1.583980     -1.268020     -3.015000
  H       0.556850     -2.683930     -2.751560
  H       3.945980     -2.778350     -1.421750
  H       3.952920     -2.771470      0.333440
  H       5.251410     -0.657540     -1.493880
  H       6.096790     -2.008110     -0.725460
  H       5.422080     -0.719610      0.271470
22
Coordinates from ORCA-job Et3N_DFT E -291.994410183551
  C       1.681862      0.633467      0.708207
  C       2.552170     -0.624735      0.769060
  N       2.757570     -1.250335     -0.547759
  C       1.562872     -1.997947     -0.973406
  C       1.504040     -2.225799     -2.486235
  C       3.951460     -2.111762     -0.546226
  C       5.261698     -1.323008     -0.621754
  H       2.100581      1.360248     -0.006213
  H       1.643186      1.115452      1.699352
  H       0.644558      0.415555      0.408409
  H       3.526503     -0.323327      1.182839
  H       2.120985     -1.352639      1.490032
  H       1.492168     -2.969300     -0.437662
  H       0.662069     -1.428856     -0.697676
  H       2.310178     -2.884601     -2.846065
  H       1.576904     -1.267787     -3.025482
  H       0.546205     -2.698300     -2.761171
  H       3.922076     -2.773588     -1.425221
  H       3.957504     -2.778203      0.343502
  H       5.262979     -0.656961     -1.499413
  H       6.115111     -2.014702     -0.719038
  H       5.437520     -0.708923      0.275691
22
Coordinates from ORCA-job Et3N_DFT E -291.994863086192
  C       1.679815      0.635882      0.709378
  C       2.547933     -0.623391      0.768205
  N       2.755158     -1.262372     -0.536926
  C       1.564912     -2.000223     -0.976722
  C       1.503015     -2.226460     -2.489210
  C       3.954086     -2.109203     -0.543102
  C       5.265077     -1.322708     -0.622379
  H       2.105412      1.362522     -0.003016
  H       1.633848      1.114653      1.702378
  H       0.643509      0.421629      0.399501
  H       3.532380     -0.336690      1.169683
  H       2.117221     -1.348182      1.498981
  H       1.485210     -2.976319     -0.442205
  H       0.675103     -1.420855     -0.685031
  H       2.314605     -2.877919     -2.853643
  H       1.572363     -1.264269     -3.023957
  H       0.548051     -2.705443     -2.765163
  H       3.902992     -2.770316     -1.422316
  H       3.967093     -2.782105      0.346916
  H       5.262804     -0.661586     -1.505278
  H       6.120394     -2.013917     -0.712292
  H       5.439217     -0.698776      0.269967
22
Coordinates from ORCA-job Et3N_DFT E -291.994937382382
  C       1.682679      0.636291      0.706886
  C       2.545720     -0.624449      0.770919
  N       2.753363     -1.271404     -0.528728
  C       1.564282     -2.003813     -0.976472
  C       1.503407     -2.222241     -2.488679
  C       3.955678     -2.111131     -0.539779
  C       5.262862     -1.321794     -0.625873
  H       2.116275      1.362418     -0.000728
  H       1.627699      1.112278      1.699950
  H       0.649670      0.425203      0.386005
  H       3.532481     -0.343976      1.170136
  H       2.112218     -1.342963      1.506190
  H       1.479893     -2.982917     -0.448293
  H       0.677755     -1.423425     -0.678275
  H       2.320404     -2.864239     -2.856167
  H       1.566409     -1.256923     -3.017937
  H       0.553377     -2.707972     -2.766888
  H       3.897690     -2.773995     -1.416798
  H       3.976885     -2.783940      0.350056
  H       5.257868     -0.668233     -1.514006
  H       6.120315     -2.010165     -0.707759
  H       5.433273     -0.688659      0.260010
22
Coordinates from ORCA-job Et3N_DFT E -291.994974148953
  C       1.687874      0.637228      0.702915
  C       2.542898     -0.627353      0.774986
  N       2.751718     -1.279974     -0.520867
  C       1.563722     -2.009105     -0.974670
  C       1.503612     -2.215241     -2.487645
  C       3.956841     -2.114488     -0.534706
  C       5.259286     -1.320488     -0.631842
  H       2.133532      1.363715      0.003706
  H       1.620292      1.109226      1.696604
  H       0.659240      0.431251      0.366428
  H       3.529853     -0.352652      1.177157
  H       2.102651     -1.338945      1.512181
  H       1.478062     -2.992385     -0.455662
  H       0.677264     -1.432118     -0.670527
  H       2.328117     -2.843962     -2.860092
  H       1.555424     -1.245716     -3.009735
  H       0.560015     -2.710787     -2.768584
  H       3.895660     -2.782481     -1.407345
  H       3.987351     -2.783246      0.357180
  H       5.251940     -0.678723     -1.528143
  H       6.119842     -2.005485     -0.702553
  H       5.425006     -0.674322      0.244982
22
Coordinates from ORCA-job Et3N_DFT E -291.994998823151
  C       1.694539      0.639100      0.698572
  C       2.539175     -0.631612      0.779519
  N       2.750226     -1.287714     -0.513721
  C       1.563747     -2.015590     -0.972113
  C       1.503222     -2.206902     -2.486752
  C       3.957646     -2.118161     -0.528245
  C       5.255468     -1.318978     -0.639530
  H       2.155913      1.366782      0.011136
  H       1.611383      1.105887      1.693474
  H       0.671171      0.440320      0.342464
  H       3.525292     -0.363686      1.188373
  H       2.088712     -1.336830      1.516123
  H       1.480252     -3.004109     -0.463594
  H       0.675394     -1.444985     -0.661420
  H       2.336889     -2.819219     -2.865903
  H       1.539715     -1.232352     -3.000406
  H       0.567196     -2.714796     -2.770659
  H       3.894834     -2.794075     -1.394687
  H       3.997503     -2.779728      0.368119
  H       5.246195     -0.692705     -1.546529
  H       6.119913     -2.000254     -0.696397
  H       5.415813     -0.656445      0.225946
22
Coordinates from ORCA-job Et3N_DFT E -291.995010624438
  C       1.699705      0.641013      0.696000
  C       2.536150     -0.635141      0.782595
  N       2.749371     -1.291788     -0.509879
  C       1.564170     -2.020281     -0.970164
  C       1.502533     -2.201174     -2.486355
  C       3.957890     -2.120438     -0.523409
  C       5.253046     -1.317946     -0.645536
  H       2.173871      1.370036      0.018715
  H       1.604335      1.103499      1.692038
  H       0.680512      0.448329      0.324304
  H       3.521244     -0.372760      1.197961
  H       2.076739     -1.337097      1.516753
  H       1.484581     -3.012688     -0.468682
  H       0.673616     -1.455342     -0.654786
  H       2.343260     -2.800838     -2.870671
  H       1.526429     -1.222972     -2.993847
  H       0.572234     -2.718708     -2.772408
  H       3.894521     -2.803153     -1.384687
  H       4.003367     -2.775262      0.377584
  H       5.242838     -0.704310     -1.561164
  H       6.120563     -1.996455     -0.691584
  H       5.409225     -0.642573      0.210992
22
Coordinates from ORCA-job Et3N_DFT E -291.995013780540
  C       1.701537      0.641911      0.695716
  C       2.535043     -0.636464      0.783473
  N       2.749215     -1.292075     -0.509505
  C       1.564437     -2.021599     -0.969564
  C       1.502125     -2.199775     -2.486353
  C       3.957775     -2.120875     -0.521953
  C       5.252480     -1.317664     -0.647695
  H       2.180873      1.371718      0.022807
  H       1.601476      1.102535      1.692327
  H       0.683980      0.451666      0.317883
  H       3.519698     -0.376471      1.201664
  H       2.071917     -1.338331      1.515528
  H       1.487392     -3.015134     -0.469684
  H       0.672937     -1.458720     -0.652765
  H       2.345524     -2.794904     -2.872283
  H       1.521112     -1.220379     -2.991915
  H       0.573871     -2.720906     -2.773099
  H       3.894257     -2.806235     -1.381250
  H       4.004237     -2.772698      0.381294
  H       5.242241     -0.709056     -1.566767
  H       6.121171     -1.995193     -0.689571
  H       5.406902     -0.637404      0.205482
22
Coordinates from ORCA-job Et3N_DFT E -291.995014410079
  C       1.701773      0.642088      0.696149
  C       2.534952     -0.636645      0.783456
  N       2.749294     -1.291334     -0.510134
  C       1.564462     -2.021434     -0.969586
  C       1.501980     -2.200144     -2.486392
  C       3.957662     -2.120676     -0.522077
  C       5.252570     -1.317652     -0.647923
  H       2.182235      1.372235      0.024353
  H       1.600758      1.102177      1.692955
  H       0.684589      0.452256      0.316995
  H       3.519578     -0.377289      1.202154
  H       2.071138     -1.339241      1.514439
  H       1.488305     -3.014799     -0.469120
  H       0.672911     -1.458565     -0.652837
  H       2.345827     -2.794763     -2.872229
  H       1.520201     -1.220693     -2.991954
  H       0.573985     -2.721796     -2.773173
  H       3.894032     -2.806350     -1.381131
  H       4.003519     -2.771865      0.381722
  H       5.242554     -0.710047     -1.567705
  H       6.121499     -1.994995     -0.688914
  H       5.406376     -0.636519      0.204721
