## avogadro generated ORCA input file 
# Advanced Mode
# 
! B3LYP OPT def2-SVP NormalPrint defgrid2 NormalSCF 

! CPCM
%cpcm
epsilon 69.0
refrac 1.34
end

%scf
	MaxIter 125
	CNVDIIS 1
	CNVSOSCF 1 
end

* xyz 0 1
   C       -1.18910        0.00301        0.00007
   C       -0.34314        1.08661       -0.00013
   N        0.96604        0.67988        0.00007
   C        0.92136       -0.63244        0.00038
   N       -0.36604       -1.08899        0.00040
   H       -2.26610       -0.08224        0.00001
   H       -0.60557        2.13670       -0.00040
   H        1.77537       -1.29654        0.00061
   H       -0.65047       -2.05876        0.00061
*

