10
Coordinates from ORCA-job Pyrrole_DFT E -209.897174428501
  C      -1.194050      0.008000      0.001060
  C      -0.370370      1.111580      0.000540
  N       0.927530      0.671210     -0.000060
  C       0.941690     -0.699290      0.000070
  C      -0.363560     -1.138220      0.000750
  H      -2.276200      0.026190      0.001590
  H      -0.595770      2.169510      0.000550
  H       1.746970      1.264930     -0.000520
  H       1.876770     -1.243020     -0.000340
  H      -0.683370     -2.172200      0.001010
10
Coordinates from ORCA-job Pyrrole_DFT E -209.897643837699
  C      -1.200159      0.010106      0.001055
  C      -0.370482      1.117825      0.000544
  N       0.927606      0.671309     -0.000059
  C       0.947513     -0.701372      0.000063
  C      -0.363457     -1.144816      0.000758
  H      -2.290016      0.029837      0.001586
  H      -0.595966      2.183273      0.000555
  H       1.749148      1.266547     -0.000522
  H       1.889757     -1.247446     -0.000354
  H      -0.684304     -2.186572      0.001023
10
Coordinates from ORCA-job Pyrrole_DFT E -209.897663476730
  C      -1.201686      0.010685      0.001064
  C      -0.369978      1.119124      0.000539
  N       0.926813      0.670739     -0.000057
  C       0.948890     -0.701311      0.000069
  C      -0.363371     -1.146496      0.000749
  H      -2.291545      0.030963      0.001603
  H      -0.595227      2.184499      0.000544
  H       1.748341      1.265961     -0.000522
  H       1.891175     -1.247081     -0.000344
  H      -0.683773     -2.188394      0.001006
10
Coordinates from ORCA-job Pyrrole_DFT E -209.897665113262
  C      -1.201870      0.010801      0.001050
  C      -0.369584      1.119283      0.000547
  N       0.926443      0.670468     -0.000056
  C       0.949167     -0.700992      0.000060
  C      -0.363308     -1.146724      0.000762
  H      -2.291552      0.031192      0.001580
  H      -0.595194      2.184413      0.000559
  H       1.748007      1.265708     -0.000523
  H       1.891134     -1.246986     -0.000359
  H      -0.683602     -2.188471      0.001029
