## avogadro generated ORCA input file 
# Advanced Mode
# 
! B3LYP OPT def2-SVP NormalPrint defgrid2 NormalSCF 

! CPCM
%cpcm
epsilon 69.0
refrac 1.34
end

%scf
	MaxIter 125
	CNVDIIS 1
	CNVSOSCF 1 
end

* xyz 0 1
   C        1.68964        0.62504        0.70123
   C        2.55752       -0.62848        0.77281
   N        2.75927       -1.24197       -0.55493
   C        1.55914       -1.99687       -0.96696
   C        1.50936       -2.21868       -2.47625
   C        3.94786       -2.11786       -0.54809
   C        5.24854       -1.32280       -0.62382
   H        2.10248        1.34770       -0.01073
   H        1.65393        1.10804        1.68354
   H        0.65953        0.40370        0.40903
   H        3.51413       -0.30983        1.20047
   H        2.12724       -1.34855        1.48039
   H        1.49501       -2.95710       -0.43955
   H        0.64870       -1.44382       -0.71250
   H        2.30784       -2.87754       -2.82813
   H        1.58398       -1.26802       -3.01500
   H        0.55685       -2.68393       -2.75156
   H        3.94598       -2.77835       -1.42175
   H        3.95292       -2.77147        0.33344
   H        5.25141       -0.65754       -1.49388
   H        6.09679       -2.00811       -0.72546
   H        5.42208       -0.71961        0.27147
*

