36
Coordinates from ORCA-job EDTA_DFT E -1100.663812414596
  C       1.181970     -0.273230     -0.380250
  C       0.550450      0.932760      0.375590
  N      -0.919580      1.017800      0.270830
  C      -1.600880     -0.184360      0.815280
  C      -1.965590     -1.129790     -0.326520
  O      -1.531120     -2.269040     -0.428900
  O      -2.799750     -0.580750     -1.239910
  C      -1.426340      2.259890      0.896690
  C      -2.852850      2.558350      0.420980
  O      -3.498830      1.830060     -0.325480
  O      -3.356240      3.708950      0.919390
  N       2.667210     -0.309420     -0.550570
  C       3.389730     -0.096900      0.747590
  C       3.115940     -1.201890      1.763610
  O       3.139800     -1.030320      2.973140
  O       2.883920     -2.407780      1.197610
  C       3.069080      0.787210     -1.496680
  C       4.452060      0.516400     -2.083690
  O       5.232060      1.384520     -2.440740
  O       4.706110     -0.809230     -2.209100
  H       0.729550     -0.347130     -1.378320
  H       0.886280     -1.196490      0.128200
  H       0.969370      1.852340     -0.048820
  H       0.842370      0.901950      1.432590
  H      -2.537480      0.049530      1.336200
  H      -0.979930     -0.714160      1.547350
  H      -3.046760      0.351960     -1.013110
  H      -0.815540      3.112750      0.577930
  H      -1.410260      2.189370      1.989820
  H      -2.749240      4.210350      1.497070
  H       3.128370      0.866490      1.198460
  H       4.472210     -0.110720      0.576170
  H       2.839850     -2.319000      0.223140
  H       3.075890      1.764820     -1.002460
  H       2.385880      0.826020     -2.353290
  H       3.929940     -1.304620     -1.871590
36
Coordinates from ORCA-job EDTA_DFT E -1100.673974993077
  C       1.151646     -0.240900     -0.362442
  C       0.535643      0.952165      0.399557
  N      -0.926809      1.011447      0.281497
  C      -1.585839     -0.189324      0.837206
  C      -1.933581     -1.182410     -0.272458
  O      -1.516179     -2.319924     -0.325354
  O      -2.756118     -0.698730     -1.205614
  C      -1.439581      2.255678      0.867024
  C      -2.844684      2.609513      0.376393
  O      -3.514400      1.938793     -0.382436
  O      -3.324985      3.762822      0.840527
  N       2.628947     -0.247357     -0.531329
  C       3.358605     -0.101448      0.751657
  C       3.123795     -1.278184      1.691273
  O       3.171474     -1.192855      2.895195
  O       2.927665     -2.454572      1.076641
  C       3.057351      0.825595     -1.464047
  C       4.426633      0.516050     -2.066561
  O       5.203035      1.353696     -2.459728
  O       4.686427     -0.796597     -2.168514
  H       0.704609     -0.295114     -1.366674
  H       0.864151     -1.178730      0.134639
  H       0.941204      1.884101     -0.024140
  H       0.834143      0.919200      1.466173
  H      -2.529635      0.065561      1.342901
  H      -0.962182     -0.696151      1.592865
  H      -2.994047      0.242318     -1.006452
  H      -0.796424      3.092582      0.552101
  H      -1.445170      2.217608      1.973780
  H      -2.707139      4.229943      1.428789
  H       3.105838      0.834129      1.273786
  H       4.442683     -0.094593      0.551362
  H       2.890053     -2.312827      0.109994
  H       3.091950      1.817348     -0.986711
  H       2.356802      0.867311     -2.312762
  H       3.931766     -1.279455     -1.769927
36
Coordinates from ORCA-job EDTA_DFT E -1100.674859423583
  C       1.163280     -0.217124     -0.326721
  C       0.565970      0.966972      0.445134
  N      -0.894397      1.011930      0.330024
  C      -1.565794     -0.168976      0.885097
  C      -1.994325     -1.122004     -0.227405
  O      -1.668623     -2.281172     -0.307936
  O      -2.791397     -0.571947     -1.134814
  C      -1.440141      2.247566      0.850048
  C      -2.833209      2.505999      0.297148
  O      -3.435515      1.758429     -0.438779
  O      -3.410659      3.638609      0.666945
  N       2.631883     -0.203288     -0.503368
  C       3.376550     -0.127876      0.761599
  C       3.158652     -1.347216      1.651534
  O       3.241502     -1.315890      2.848889
  O       2.916643     -2.496707      1.016061
  C       3.077062      0.854184     -1.422842
  C       4.417062      0.521954     -2.080142
  O       5.184555      1.347410     -2.496848
  O       4.660921     -0.779598     -2.225794
  H       0.714662     -0.249753     -1.332664
  H       0.886236     -1.167139      0.158512
  H       0.959884      1.905967      0.020179
  H       0.877560      0.933247      1.514322
  H      -2.492649      0.138648      1.398148
  H      -0.954284     -0.710893      1.631472
  H      -2.941869      0.379737     -0.911983
  H      -0.810823      3.092444      0.518769
  H      -1.487139      2.276857      1.963548
  H      -2.842475      4.164890      1.253442
  H       3.160871      0.784890      1.344170
  H       4.458037     -0.123315      0.530146
  H       2.849754     -2.322582      0.058125
  H       3.154845      1.849170     -0.948793
  H       2.345723      0.922241     -2.247259
  H       3.919296     -1.258975     -1.799754
36
Coordinates from ORCA-job EDTA_DFT E -1100.678171303221
  C       1.154088     -0.186134     -0.318258
  C       0.550502      0.986999      0.465105
  N      -0.911618      1.019726      0.351016
  C      -1.573108     -0.153620      0.938809
  C      -1.910676     -1.212667     -0.113993
  O      -1.550021     -2.366003     -0.058963
  O      -2.643838     -0.777911     -1.133267
  C      -1.459332      2.277618      0.816400
  C      -2.833996      2.565780      0.237992
  O      -3.443451      1.824090     -0.503697
  O      -3.393662      3.715071      0.591507
  N       2.622639     -0.164804     -0.481634
  C       3.370868     -0.177172      0.781461
  C       3.154587     -1.443745      1.606230
  O       3.255076     -1.475851      2.805316
  O       2.864144     -2.552723      0.918013
  C       3.090706      0.907001     -1.367543
  C       4.392268      0.557814     -2.089799
  O       5.173074      1.380126     -2.496756
  O       4.573662     -0.741674     -2.322728
  H       0.717355     -0.194879     -1.329699
  H       0.876147     -1.145844      0.145079
  H       0.934593      1.931748      0.047009
  H       0.863867      0.949454      1.532101
  H      -2.529344      0.156635      1.392196
  H      -0.979056     -0.625085      1.742929
  H      -2.839394      0.187732     -1.025069
  H      -0.806998      3.102370      0.480354
  H      -1.527686      2.354388      1.926155
  H      -2.823484      4.227683      1.190819
  H       3.177432      0.697969      1.425755
  H       4.449992     -0.167343      0.542322
  H       2.775539     -2.329261     -0.027745
  H       3.225911      1.879622     -0.861278
  H       2.337777      1.044296     -2.162831
  H       3.823087     -1.214714     -1.905098
36
Coordinates from ORCA-job EDTA_DFT E -1100.678799415044
  C       1.146978     -0.170030     -0.309431
  C       0.537195      1.004435      0.475748
  N      -0.927657      1.030263      0.375825
  C      -1.573355     -0.139696      0.991179
  C      -1.920720     -1.213985     -0.042146
  O      -1.567838     -2.372541      0.042265
  O      -2.688822     -0.796350     -1.049180
  C      -1.493695      2.303665      0.789396
  C      -2.845325      2.584994      0.149357
  O      -3.405953      1.842702     -0.637547
  O      -3.412067      3.747938      0.468212
  N       2.618284     -0.152835     -0.465958
  C       3.373426     -0.220697      0.793192
  C       3.206482     -1.539725      1.541409
  O       3.338313     -1.640990      2.739103
  O       3.012568     -2.621698      0.773520
  C       3.096024      0.934800     -1.327581
  C       4.371850      0.569537     -2.082251
  O       5.173315      1.384865     -2.477916
  O       4.531443     -0.740766     -2.299096
  H       0.713017     -0.174000     -1.321487
  H       0.865423     -1.128410      0.150453
  H       0.913510      1.947825      0.052328
  H       0.857428      0.972422      1.537120
  H      -2.521859      0.163211      1.461830
  H      -0.957929     -0.598504      1.783874
  H      -2.907580      0.166208     -0.942830
  H      -0.829153      3.120857      0.463109
  H      -1.603489      2.411358      1.890249
  H      -2.872394      4.260509      1.097200
  H       3.154066      0.603315      1.492622
  H       4.450147     -0.158386      0.557528
  H       2.936993     -2.347660     -0.161307
  H       3.268521      1.888000     -0.798966
  H       2.337512      1.119222     -2.106039
  H       3.782991     -1.203165     -1.865573
36
Coordinates from ORCA-job EDTA_DFT E -1100.680270897563
  C       1.154147     -0.152777     -0.293960
  C       0.549672      1.021523      0.494631
  N      -0.915117      1.035604      0.410035
  C      -1.551015     -0.121969      1.049255
  C      -1.888098     -1.219499      0.038343
  O      -1.565179     -2.381803      0.171414
  O      -2.577860     -0.809468     -1.025416
  C      -1.503337      2.313203      0.762378
  C      -2.846367      2.548429      0.086426
  O      -3.383801      1.762647     -0.673853
  O      -3.447572      3.704060      0.360579
  N       2.623131     -0.136181     -0.446163
  C       3.377085     -0.264546      0.804315
  C       3.198828     -1.607780      1.504037
  O       3.344699     -1.754442      2.694742
  O       2.920083     -2.649929      0.709088
  C       3.114414      0.967690     -1.273840
  C       4.350841      0.597805     -2.088996
  O       5.155495      1.408671     -2.485836
  O       4.449173     -0.699950     -2.392334
  H       0.720564     -0.149103     -1.306460
  H       0.871657     -1.112835      0.163309
  H       0.915353      1.965445      0.062772
  H       0.883676      0.995154      1.552407
  H      -2.504743      0.186743      1.506704
  H      -0.935550     -0.560835      1.853726
  H      -2.762366      0.165370     -0.965272
  H      -0.843059      3.127604      0.419376
  H      -1.637253      2.470907      1.855396
  H      -2.929363      4.245883      0.982427
  H       3.171054      0.530660      1.541480
  H       4.454568     -0.202848      0.569631
  H       2.818483     -2.338363     -0.210512
  H       3.339289      1.892305     -0.713922
  H       2.338564      1.217050     -2.017021
  H       3.697554     -1.157738     -1.960677
36
Coordinates from ORCA-job EDTA_DFT E -1100.680748337014
  C       1.157720     -0.122112     -0.292773
  C       0.563598      1.048821      0.507718
  N      -0.900957      1.050174      0.447843
  C      -1.526063     -0.091992      1.116055
  C      -1.856162     -1.227854      0.143261
  O      -1.588296     -2.391415      0.356089
  O      -2.507756     -0.860822     -0.956917
  C      -1.511146      2.326735      0.734835
  C      -2.835400      2.508942      0.010557
  O      -3.320932      1.689123     -0.746732
  O      -3.484857      3.646056      0.237251
  N       2.624518     -0.114722     -0.440822
  C       3.375018     -0.320187      0.795872
  C       3.174033     -1.690747      1.434547
  O       3.367169     -1.900799      2.607284
  O       2.800884     -2.678915      0.612533
  C       3.140656      1.005531     -1.225716
  C       4.348882      0.638298     -2.085302
  O       5.158961      1.446336     -2.472823
  O       4.419577     -0.647970     -2.431436
  H       0.722421     -0.104864     -1.304636
  H       0.870562     -1.084349      0.158136
  H       0.915892      1.994738      0.068634
  H       0.919060      1.023806      1.559307
  H      -2.482702      0.223855      1.565818
  H      -0.905608     -0.502890      1.931811
  H      -2.680824      0.119302     -0.951935
  H      -0.852677      3.139652      0.383250
  H      -1.683089      2.529765      1.815651
  H      -3.008491      4.215585      0.867351
  H       3.187839      0.437948      1.577231
  H       4.453401     -0.263889      0.562057
  H       2.660618     -2.318102     -0.283060
  H       3.409968      1.896459     -0.631039
  H       2.360305      1.321399     -1.938893
  H       3.671530     -1.104204     -1.992797
36
Coordinates from ORCA-job EDTA_DFT E -1100.681051526067
  C       1.145997     -0.102033     -0.290136
  C       0.562144      1.071166      0.516469
  N      -0.901897      1.068734      0.480883
  C      -1.522117     -0.055507      1.178065
  C      -1.862869     -1.223255      0.245203
  O      -1.633908     -2.382182      0.519722
  O      -2.422858     -0.887303     -0.912153
  C      -1.525567      2.347245      0.709479
  C      -2.834352      2.491145     -0.052649
  O      -3.279651      1.647691     -0.807862
  O      -3.516574      3.614963      0.137308
  N       2.613357     -0.109645     -0.432667
  C       3.360429     -0.370759      0.794772
  C       3.187357     -1.775599      1.366212
  O       3.407837     -2.037880      2.523049
  O       2.834596     -2.734284      0.501949
  C       3.148114      1.025419     -1.182308
  C       4.337012      0.663192     -2.072255
  O       5.140043      1.473667     -2.468137
  O       4.383109     -0.613737     -2.451614
  H       0.709414     -0.078010     -1.301327
  H       0.848881     -1.061110      0.160562
  H       0.906358      2.015447      0.067990
  H       0.937268      1.049243      1.561277
  H      -2.475176      0.270348      1.630140
  H      -0.893929     -0.446304      1.997921
  H      -2.569801      0.096931     -0.963854
  H      -0.865726      3.155211      0.349082
  H      -1.727119      2.586140      1.777488
  H      -3.075389      4.205963      0.773412
  H       3.153447      0.339037      1.616295
  H       4.439005     -0.278086      0.575119
  H       2.691308     -2.339053     -0.378236
  H       3.449460      1.885138     -0.557974
  H       2.368786      1.393808     -1.870924
  H       3.640662     -1.069046     -2.002090
36
Coordinates from ORCA-job EDTA_DFT E -1100.681277543181
  C       1.147823     -0.100719     -0.299036
  C       0.563912      1.070898      0.513105
  N      -0.899437      1.064475      0.494281
  C      -1.509533     -0.057018      1.204020
  C      -1.880743     -1.227665      0.286001
  O      -1.686663     -2.388248      0.582091
  O      -2.438617     -0.893588     -0.872147
  C      -1.530689      2.345638      0.701435
  C      -2.817800      2.497520     -0.102092
  O      -3.223603      1.674491     -0.900961
  O      -3.509596      3.617230      0.084421
  N       2.617057     -0.114848     -0.436896
  C       3.358480     -0.385890      0.795448
  C       3.199584     -1.798228      1.354453
  O       3.420155     -2.064432      2.511160
  O       2.831904     -2.750590      0.488380
  C       3.153536      1.034325     -1.169209
  C       4.336073      0.685664     -2.073860
  O       5.137389      1.502492     -2.461756
  O       4.373549     -0.585163     -2.476655
  H       0.710755     -0.076590     -1.309755
  H       0.846089     -1.058026      0.152241
  H       0.900677      2.016088      0.061753
  H       0.951395      1.048714      1.552840
  H      -2.447832      0.268001      1.686272
  H      -0.860396     -0.452373      2.005230
  H      -2.583799      0.090336     -0.925871
  H      -0.859794      3.152935      0.361825
  H      -1.762710      2.580331      1.763453
  H      -3.100313      4.198076      0.750703
  H       3.131831      0.311250      1.622424
  H       4.437628     -0.275936      0.590796
  H       2.687247     -2.352672     -0.390119
  H       3.463641      1.875538     -0.524801
  H       2.374733      1.426073     -1.844700
  H       3.625717     -1.041396     -2.036270
36
Coordinates from ORCA-job EDTA_DFT E -1100.681362281612
  C       1.145149     -0.095329     -0.314808
  C       0.563476      1.072628      0.505303
  N      -0.899293      1.062617      0.499695
  C      -1.501697     -0.064106      1.205352
  C      -1.873532     -1.232403      0.284651
  O      -1.727279     -2.394688      0.602172
  O      -2.410277     -0.895628     -0.883141
  C      -1.534105      2.343871      0.710508
  C      -2.825383      2.499020     -0.088896
  O      -3.245204      1.669768     -0.874304
  O      -3.513475      3.620803      0.103376
  N       2.615007     -0.115786     -0.452168
  C       3.349187     -0.378151      0.787903
  C       3.181666     -1.786229      1.353271
  O       3.415352     -2.050787      2.508454
  O       2.802686     -2.737990      0.490977
  C       3.153894      1.033960     -1.184887
  C       4.342689      0.682190     -2.079532
  O       5.152626      1.495808     -2.457617
  O       4.405928     -0.600829     -2.441650
  H       0.707583     -0.068148     -1.325029
  H       0.839635     -1.053328      0.133551
  H       0.894237      2.020592      0.055848
  H       0.960256      1.045995      1.541173
  H      -2.437162      0.252487      1.698481
  H      -0.846701     -0.463621      1.999716
  H      -2.529241      0.090357     -0.950033
  H      -0.865799      3.152119      0.369274
  H      -1.761818      2.571317      1.774578
  H      -3.096698      4.205357      0.761723
  H       3.114949      0.325037      1.606982
  H       4.429712     -0.271436      0.590929
  H       2.656384     -2.341997     -0.388453
  H       3.457708      1.875230     -0.537689
  H       2.380371      1.422908     -1.867472
  H       3.656819     -1.054917     -2.000027
36
Coordinates from ORCA-job EDTA_DFT E -1100.681441673245
  C       1.142117     -0.088453     -0.312191
  C       0.565067      1.078275      0.511328
  N      -0.897353      1.065620      0.509985
  C      -1.497001     -0.062284      1.213148
  C      -1.862138     -1.234362      0.294422
  O      -1.713391     -2.394657      0.616386
  O      -2.383472     -0.904517     -0.882122
  C      -1.535654      2.343390      0.717596
  C      -2.815846      2.493034     -0.096934
  O      -3.217570      1.664028     -0.891380
  O      -3.507330      3.614602      0.079253
  N       2.611019     -0.112394     -0.451496
  C       3.343910     -0.380916      0.786364
  C       3.167924     -1.790212      1.345380
  O       3.418691     -2.065110      2.494025
  O       2.778253     -2.735158      0.481327
  C       3.153761      1.036139     -1.181047
  C       4.342750      0.682088     -2.074411
  O       5.139961      1.498676     -2.471321
  O       4.399082     -0.597919     -2.445515
  H       0.704935     -0.056342     -1.322466
  H       0.834245     -1.047800      0.132613
  H       0.893335      2.027548      0.062486
  H       0.965870      1.050006      1.546005
  H      -2.435129      0.251617      1.703594
  H      -0.843415     -0.458789      2.010466
  H      -2.511271      0.079662     -0.951911
  H      -0.865708      3.154108      0.385115
  H      -1.777404      2.567845      1.779422
  H      -3.100302      4.201097      0.741791
  H       3.114976      0.320836      1.608064
  H       4.424863     -0.279697      0.587518
  H       2.625349     -2.333438     -0.394455
  H       3.458860      1.876262     -0.532738
  H       2.380811      1.426896     -1.863593
  H       3.654857     -1.052990     -1.996500
36
Coordinates from ORCA-job EDTA_DFT E -1100.681458506861
  C       1.137798     -0.083021     -0.307532
  C       0.565476      1.085066      0.516648
  N      -0.896932      1.071126      0.521467
  C      -1.494340     -0.051886      1.232015
  C      -1.859842     -1.232796      0.324617
  O      -1.711212     -2.389506      0.658420
  O      -2.365552     -0.915283     -0.861860
  C      -1.539288      2.347985      0.712897
  C      -2.806182      2.488605     -0.122419
  O      -3.193899      1.651398     -0.914794
  O      -3.507396      3.605859      0.038962
  N       2.606390     -0.111123     -0.449801
  C       3.341929     -0.395623      0.782566
  C       3.176132     -1.815309      1.318730
  O       3.421151     -2.104675      2.464737
  O       2.776967     -2.747472      0.445636
  C       3.151484      1.042044     -1.169220
  C       4.336680      0.692665     -2.069377
  O       5.134938      1.510571     -2.460742
  O       4.394508     -0.585313     -2.445009
  H       0.700319     -0.047856     -1.317611
  H       0.827274     -1.042059      0.135943
  H       0.891145      2.033739      0.064511
  H       0.971510      1.059134      1.549588
  H      -2.432526      0.264685      1.721101
  H      -0.840302     -0.441949      2.032442
  H      -2.498314      0.067592     -0.939919
  H      -0.866092      3.158337      0.385908
  H      -1.798266      2.578241      1.769468
  H      -3.111937      4.197221      0.704036
  H       3.111084      0.291869      1.615819
  H       4.422093     -0.285335      0.583746
  H       2.624225     -2.335342     -0.425311
  H       3.461168      1.875103     -0.513855
  H       2.377571      1.441756     -1.845597
  H       3.649890     -1.041758     -1.998001
36
Coordinates from ORCA-job EDTA_DFT E -1100.681488295008
  C       1.136793     -0.082381     -0.306519
  C       0.565745      1.085426      0.519351
  N      -0.896785      1.070997      0.528738
  C      -1.493075     -0.049282      1.243550
  C      -1.861025     -1.233677      0.341595
  O      -1.729581     -2.389015      0.687516
  O      -2.359447     -0.920493     -0.849241
  C      -1.542160      2.348585      0.709703
  C      -2.804196      2.485707     -0.135180
  O      -3.189512      1.643390     -0.923397
  O      -3.502028      3.607306      0.011436
  N       2.605757     -0.112661     -0.449768
  C       3.341523     -0.404334      0.781795
  C       3.177734     -1.827519      1.310019
  O       3.433501     -2.124594      2.451877
  O       2.777786     -2.755492      0.432668
  C       3.150783      1.046026     -1.162004
  C       4.335204      0.704026     -2.066134
  O       5.134283      1.525134     -2.449490
  O       4.390872     -0.570090     -2.455231
  H       0.699230     -0.045615     -1.316491
  H       0.825091     -1.041410      0.135700
  H       0.889424      2.034181      0.066198
  H       0.975135      1.060097      1.550927
  H      -2.430151      0.268850      1.733700
  H      -0.838334     -0.437518      2.044388
  H      -2.482528      0.063221     -0.934717
  H      -0.867287      3.158128      0.384410
  H      -1.808812      2.582292      1.763385
  H      -3.107429      4.203501      0.672622
  H       3.109093      0.278053      1.618706
  H       4.421617     -0.291239      0.584503
  H       2.620285     -2.339069     -0.435304
  H       3.461010      1.873610     -0.500114
  H       2.376409      1.451250     -1.834468
  H       3.642723     -1.028702     -2.016519
36
Coordinates from ORCA-job EDTA_DFT E -1100.681497276780
  C       1.135020     -0.077896     -0.306634
  C       0.566277      1.087546      0.524582
  N      -0.896225      1.071354      0.541641
  C      -1.489340     -0.046239      1.261957
  C      -1.860405     -1.236049      0.368275
  O      -1.742972     -2.388797      0.728014
  O      -2.347019     -0.930544     -0.829740
  C      -1.547296      2.348658      0.708884
  C      -2.798355      2.481030     -0.154634
  O      -3.174761      1.633091     -0.941296
  O      -3.494535      3.606431     -0.027588
  N       2.604047     -0.111202     -0.452013
  C       3.338730     -0.413274      0.778160
  C       3.174792     -1.841781      1.290759
  O       3.441186     -2.153859      2.426462
  O       2.764636     -2.757231      0.404996
  C       3.150960      1.052100     -1.156305
  C       4.336526      0.714479     -2.060306
  O       5.135766      1.537998     -2.438847
  O       4.392764     -0.558050     -2.455665
  H       0.696503     -0.037354     -1.316046
  H       0.822625     -1.038087      0.132509
  H       0.886178      2.037593      0.071911
  H       0.981091      1.060981      1.553828
  H      -2.424848      0.273019      1.754174
  H      -0.832664     -0.431250      2.062861
  H      -2.462336      0.053309     -0.924962
  H      -0.869698      3.158904      0.391586
  H      -1.830021      2.583566      1.757822
  H      -3.105168      4.207348      0.632314
  H       3.103903      0.260906      1.620931
  H       4.418970     -0.297681      0.583805
  H       2.600812     -2.329334     -0.456320
  H       3.460330      1.875052     -0.488438
  H       2.378022      1.461586     -1.827742
  H       3.644155     -1.019632     -2.020727
36
Coordinates from ORCA-job EDTA_DFT E -1100.681502153704
  C       1.125401     -0.061728     -0.300876
  C       0.568435      1.098120      0.546255
  N      -0.893310      1.078821      0.586504
  C      -1.478545     -0.024938      1.328899
  C      -1.854134     -1.238998      0.469606
  O      -1.780334     -2.377834      0.881400
  O      -2.301439     -0.971330     -0.752984
  C      -1.562320      2.353037      0.698943
  C      -2.768282      2.461382     -0.232714
  O      -3.109716      1.588389     -1.007717
  O      -3.466644      3.591642     -0.174636
  N       2.593966     -0.106609     -0.453883
  C       3.326279     -0.452515      0.766819
  C       3.171693     -1.903296      1.214624
  O       3.469064     -2.270363      2.326257
  O       2.738877     -2.774315      0.295846
  C       3.148657      1.072843     -1.125791
  C       4.333470      0.754700     -2.037463
  O       5.135785      1.586109     -2.392216
  O       4.384622     -0.505777     -2.471143
  H       0.683396     -0.007407     -1.308145
  H       0.808728     -1.024762      0.128952
  H       0.878828      2.051187      0.094195
  H       1.000119      1.067484      1.568258
  H      -2.411945      0.301906      1.820225
  H      -0.818899     -0.392862      2.135757
  H      -2.395675      0.010313     -0.888060
  H      -0.876017      3.165895      0.409270
  H      -1.905309      2.597087      1.727099
  H      -3.101671      4.211022      0.481770
  H       3.081318      0.184146      1.635398
  H       4.406404     -0.320706      0.583496
  H       2.555471     -2.304726     -0.539687
  H       3.460531      1.875215     -0.434690
  H       2.378395      1.503636     -1.786868
  H       3.632451     -0.978080     -2.054489
36
Coordinates from ORCA-job EDTA_DFT E -1100.681529323150
  C       1.112774     -0.052307     -0.287887
  C       0.567059      1.098819      0.578216
  N      -0.893693      1.080386      0.636046
  C      -1.477594     -0.012117      1.391689
  C      -1.858841     -1.241366      0.556224
  O      -1.821941     -2.367890      1.004663
  O      -2.266999     -1.002342     -0.686254
  C      -1.575715      2.350747      0.697547
  C      -2.722317      2.446725     -0.309342
  O      -3.026688      1.557239     -1.080691
  O      -3.403814      3.589033     -0.327552
  N       2.580322     -0.101901     -0.453966
  C       3.316062     -0.479228      0.755756
  C       3.183984     -1.949027      1.144209
  O       3.508600     -2.361566      2.232182
  O       2.734890     -2.781175      0.198071
  C       3.134478      1.090093     -1.104118
  C       4.318244      0.790712     -2.023011
  O       5.123094      1.628563     -2.356288
  O       4.369635     -0.459452     -2.486071
  H       0.663067      0.015130     -1.290958
  H       0.797150     -1.019581      0.133308
  H       0.872277      2.056388      0.132745
  H       1.011085      1.058034      1.594348
  H      -2.409696      0.322491      1.880521
  H      -0.818323     -0.370435      2.203457
  H      -2.336259     -0.023544     -0.854409
  H      -0.878175      3.168038      0.451144
  H      -1.987888      2.594468      1.699468
  H      -3.062706      4.220593      0.330070
  H       3.057403      0.120837      1.646080
  H       4.394433     -0.323460      0.581993
  H       2.527985     -2.273436     -0.609717
  H       3.445414      1.879782     -0.398378
  H       2.362808      1.530926     -1.756996
  H       3.617535     -0.943490     -2.083889
36
Coordinates from ORCA-job EDTA_DFT E -1100.681575401783
  C       1.112071     -0.063881     -0.282637
  C       0.563430      1.084165      0.585200
  N      -0.897429      1.069845      0.635151
  C      -1.489826     -0.030018      1.375215
  C      -1.874254     -1.243245      0.518356
  O      -1.820544     -2.379614      0.938958
  O      -2.299710     -0.979967     -0.713343
  C      -1.570384      2.343532      0.711636
  C      -2.707707      2.466828     -0.301063
  O      -3.021348      1.589743     -1.082570
  O      -3.378112      3.615894     -0.303954
  N       2.579305     -0.103420     -0.453509
  C       3.322291     -0.453992      0.759507
  C       3.203907     -1.918894      1.171066
  O       3.521576     -2.311199      2.268318
  O       2.768761     -2.768474      0.233959
  C       3.121265      1.080752     -1.126375
  C       4.309814      0.775410     -2.036967
  O       5.109825      1.612644     -2.382231
  O       4.371126     -0.481410     -2.480323
  H       0.657548      0.000015     -1.283720
  H       0.804100     -1.032581      0.141232
  H       0.874316      2.043510      0.146960
  H       1.000150      1.036258      1.604084
  H      -2.422010      0.302876      1.865270
  H      -0.833428     -0.402523      2.182686
  H      -2.370808      0.001441     -0.863818
  H      -0.864796      3.160176      0.486157
  H      -1.989311      2.572345      1.714173
  H      -3.034170      4.233825      0.365573
  H       3.059910      0.157928      1.640595
  H       4.398796     -0.290872      0.580645
  H       2.560031     -2.270526     -0.579825
  H       3.422096      1.888932     -0.437408
  H       2.345570      1.498167     -1.789985
  H       3.625599     -0.966978     -2.068801
36
Coordinates from ORCA-job EDTA_DFT E -1100.681588877124
  C       1.107581     -0.069103     -0.278043
  C       0.561077      1.078792      0.591524
  N      -0.899271      1.067697      0.642738
  C      -1.493891     -0.033399      1.378596
  C      -1.878287     -1.242835      0.516423
  O      -1.824033     -2.381156      0.931795
  O      -2.296532     -0.975585     -0.716292
  C      -1.570298      2.341248      0.716825
  C      -2.693450      2.473721     -0.309177
  O      -2.997965      1.601656     -1.099751
  O      -3.359485      3.625242     -0.316783
  N       2.574262     -0.104988     -0.454465
  C       3.325393     -0.452232      0.753999
  C       3.213133     -1.916591      1.172055
  O       3.539261     -2.303449      2.268459
  O       2.769211     -2.770126      0.242587
  C       3.109754      1.078986     -1.132013
  C       4.301724      0.780241     -2.040745
  O       5.096084      1.622026     -2.387209
  O       4.375704     -0.477768     -2.477751
  H       0.647717     -0.006078     -1.276591
  H       0.802342     -1.037672      0.148755
  H       0.875168      2.038200      0.155471
  H       0.997358      1.026458      1.610411
  H      -2.426307      0.299067      1.869177
  H      -0.836565     -0.409113      2.183680
  H      -2.361410      0.005874     -0.870381
  H      -0.860948      3.159474      0.508698
  H      -2.003841      2.563172      1.714647
  H      -3.026254      4.239732      0.361496
  H       3.066512      0.159984      1.635843
  H       4.400325     -0.285300      0.569432
  H       2.549909     -2.272468     -0.568849
  H       3.405312      1.892366     -0.446714
  H       2.331731      1.489371     -1.797404
  H       3.636628     -0.968754     -2.062232
36
Coordinates from ORCA-job EDTA_DFT E -1100.681598070797
  C       1.103026     -0.070940     -0.268154
  C       0.558878      1.075930      0.604968
  N      -0.901086      1.067808      0.659425
  C      -1.497808     -0.031130      1.395423
  C      -1.880715     -1.242103      0.534526
  O      -1.842025     -2.378436      0.957527
  O      -2.289327     -0.978381     -0.701695
  C      -1.573994      2.340555      0.716860
  C      -2.671785      2.475106     -0.335881
  O      -2.964417      1.599470     -1.127123
  O      -3.332488      3.629401     -0.363551
  N       2.568945     -0.104366     -0.450523
  C       3.326440     -0.458077      0.751559
  C       3.227081     -1.927991      1.154022
  O       3.560202     -2.323842      2.244986
  O       2.783485     -2.773738      0.217016
  C       3.100118      1.082238     -1.125771
  C       4.290651      0.789027     -2.038029
  O       5.081650      1.633930     -2.384536
  O       4.361728     -0.465472     -2.485817
  H       0.638427     -0.006822     -1.264321
  H       0.800001     -1.039941      0.159594
  H       0.874997      2.035566      0.171154
  H       0.996353      1.019178      1.623130
  H      -2.430896      0.302754      1.884028
  H      -0.840605     -0.405979      2.200934
  H      -2.342024      0.002224     -0.866738
  H      -0.861076      3.161111      0.531040
  H      -2.034249      2.558913      1.703295
  H      -3.013501      4.246372      0.319246
  H       3.064297      0.141271      1.641284
  H       4.399370     -0.279177      0.567352
  H       2.558423     -2.266172     -0.587025
  H       3.396368      1.894678     -0.439461
  H       2.319666      1.493286     -1.787934
  H       3.623540     -0.959562     -2.072597
36
Coordinates from ORCA-job EDTA_DFT E -1100.681604462540
  C       1.104783     -0.070372     -0.270218
  C       0.559501      1.077022      0.601629
  N      -0.900578      1.067786      0.656004
  C      -1.496228     -0.032089      1.391907
  C      -1.878277     -1.242740      0.530157
  O      -1.832557     -2.380078      0.949656
  O      -2.289483     -0.977548     -0.704708
  C      -1.573572      2.340495      0.716800
  C      -2.677799      2.474207     -0.329514
  O      -2.973928      1.598913     -1.119857
  O      -3.339181      3.627868     -0.354029
  N       2.570574     -0.103886     -0.450890
  C       3.326259     -0.456546      0.752541
  C       3.220325     -1.924585      1.159733
  O       3.552950     -2.318308      2.251546
  O       2.777734     -2.772643      0.224299
  C       3.103166      1.081883     -1.126516
  C       4.293132      0.786459     -2.038883
  O       5.089072      1.628705     -2.380448
  O       4.362139     -0.468184     -2.486801
  H       0.641571     -0.006744     -1.267139
  H       0.801301     -1.039136      0.157442
  H       0.874920      2.036364      0.166688
  H       0.997046      1.021718      1.619993
  H      -2.429296      0.301004      1.880628
  H      -0.838466     -0.406603      2.197232
  H      -2.347030      0.003242     -0.866063
  H      -0.861899      3.161162      0.526643
  H      -2.027922      2.559092      1.706060
  H      -3.016758      4.245829      0.326030
  H       3.066800      0.146730      1.640549
  H       4.399921     -0.282782      0.567453
  H       2.556193     -2.268228     -0.582516
  H       3.400813      1.893927     -0.440216
  H       2.323314      1.494131     -1.788596
  H       3.619112     -0.959375     -2.078384
36
Coordinates from ORCA-job EDTA_DFT E -1100.681605353885
  C       1.105490     -0.070344     -0.272573
  C       0.559665      1.076925      0.599244
  N      -0.900444      1.067241      0.654111
  C      -1.495774     -0.033594      1.389141
  C      -1.877194     -1.243580      0.526041
  O      -1.829634     -2.381548      0.943688
  O      -2.291522     -0.976683     -0.707461
  C      -1.573159      2.340123      0.718220
  C      -2.681584      2.474339     -0.323716
  O      -2.981238      1.599279     -1.113114
  O      -3.341595      3.628687     -0.346429
  N       2.571303     -0.104036     -0.452536
  C       3.326442     -0.454924      0.751954
  C       3.217191     -1.921337      1.164060
  O       3.545987     -2.311540      2.258356
  O       2.773807     -2.772126      0.231455
  C       3.104255      1.081331     -1.128891
  C       4.296068      0.785353     -2.038805
  O       5.091759      1.627831     -2.380512
  O       4.366465     -0.469828     -2.485319
  H       0.642861     -0.006680     -1.269812
  H       0.801706     -1.039070      0.154665
  H       0.874583      2.036269      0.163976
  H       0.997583      1.021975      1.617481
  H      -2.428910      0.298901      1.877908
  H      -0.838020     -0.408423      2.194343
  H      -2.350824      0.004344     -0.866611
  H      -0.862110      3.160820      0.526094
  H      -2.023669      2.557844      1.709437
  H      -3.015494      4.247409      0.331168
  H       3.068834      0.151840      1.638173
  H       4.400427     -0.284382      0.565748
  H       2.555561     -2.271240     -0.578315
  H       3.400362      1.894247     -0.443019
  H       2.325206      1.492348     -1.792659
  H       3.623268     -0.961080     -2.077283
36
Coordinates from ORCA-job EDTA_DFT E -1100.681605705845
  C       1.104499     -0.070488     -0.271852
  C       0.559266      1.075620      0.601992
  N      -0.900677      1.066234      0.658516
  C      -1.496378     -0.034657      1.392877
  C      -1.878044     -1.244637      0.529727
  O      -1.831943     -2.382453      0.947993
  O      -2.290940     -0.977914     -0.704312
  C      -1.574047      2.338936      0.719831
  C      -2.675419      2.475119     -0.329464
  O      -2.973693      1.599335     -1.118668
  O      -3.332722      3.630855     -0.356874
  N       2.570123     -0.103776     -0.453307
  C       3.326461     -0.455089      0.750433
  C       3.217428     -1.921612      1.162152
  O       3.547994     -2.312393      2.255766
  O       2.772591     -2.771948      0.229850
  C       3.101940      1.082401     -1.129231
  C       4.294592      0.788115     -2.038592
  O       5.089910      1.631534     -2.378891
  O       4.366027     -0.466446     -2.486954
  H       0.640951     -0.005754     -1.268613
  H       0.801247     -1.039757      0.154488
  H       0.873861      2.035453      0.167630
  H       0.998278      1.019261      1.619657
  H      -2.429512      0.298107      1.881435
  H      -0.838881     -0.409798      2.198173
  H      -2.349096      0.003103     -0.864334
  H      -0.861969      3.160400      0.535262
  H      -2.032043      2.553938      1.708152
  H      -3.008219      4.250178      0.320982
  H       3.069814      0.151366      1.637126
  H       4.400263     -0.284559      0.563184
  H       2.553410     -2.270801     -0.579477
  H       3.396765      1.895532     -0.443101
  H       2.322571      1.492424     -1.793246
  H       3.623242     -0.959139     -2.080101
