10
Coordinates from ORCA-job Pyrimidine_DFT E -263.980095500872
  C      -0.759780      1.166990      0.005610
  C       0.615930      1.188740      0.012050
  N       1.377440      0.078790      0.015090
  C       0.707550     -1.084470      0.011410
  N      -0.627130     -1.227660      0.005100
  C      -1.335120     -0.082830      0.002320
  H      -1.349760      2.072260      0.003270
  H       1.163070      2.126900      0.015050
  H       1.299610     -1.992930      0.013750
  H      -2.414310     -0.204610     -0.002780
10
Coordinates from ORCA-job Pyrimidine_DFT E -263.981537808403
  C      -0.758994      1.165786      0.005610
  C       0.631608      1.193467      0.012135
  N       1.377564      0.078066      0.015100
  C       0.704046     -1.079042      0.011370
  N      -0.626474     -1.228025      0.005099
  C      -1.345792     -0.095267      0.002280
  H      -1.354891      2.080261      0.003230
  H       1.183390      2.141608      0.015157
  H       1.303071     -1.998320      0.013768
  H      -2.436027     -0.217355     -0.002878
10
Coordinates from ORCA-job Pyrimidine_DFT E -263.981687250689
  C      -0.757757      1.163884      0.005611
  C       0.637942      1.195130      0.012162
  N       1.376216      0.077113      0.015101
  C       0.702873     -1.077221      0.011390
  N      -0.625041     -1.227158      0.005108
  C      -1.349873     -0.100396      0.002254
  H      -1.354037      2.079033      0.003225
  H       1.185546      2.145949      0.015172
  H       1.302504     -1.997514      0.013741
  H      -2.440872     -0.217641     -0.002894
10
Coordinates from ORCA-job Pyrimidine_DFT E -263.981703846170
  C      -0.756985      1.162694      0.005612
  C       0.639269      1.195202      0.012174
  N       1.375751      0.076522      0.015098
  C       0.703183     -1.077689      0.011359
  N      -0.624311     -1.226974      0.005110
  C      -1.350471     -0.101587      0.002257
  H      -1.353126      2.077683      0.003221
  H       1.182970      2.147681      0.015167
  H       1.302632     -1.997736      0.013761
  H      -2.441412     -0.214615     -0.002889
10
Coordinates from ORCA-job Pyrimidine_DFT E -263.981707770487
  C      -0.756481      1.161916      0.005615
  C       0.639494      1.194855      0.012170
  N       1.375737      0.076222      0.015102
  C       0.703562     -1.078266      0.011402
  N      -0.624030     -1.227091      0.005116
  C      -1.350241     -0.101941      0.002253
  H      -1.352532      2.076803      0.003223
  H       1.180432      2.148670      0.015151
  H       1.302850     -1.998080      0.013729
  H      -2.441291     -0.211908     -0.002891
10
Coordinates from ORCA-job Pyrimidine_DFT E -263.981708227670
  C      -0.756374      1.161749      0.005615
  C       0.639415      1.194610      0.012176
  N       1.375881      0.076168      0.015097
  C       0.703670     -1.078429      0.011348
  N      -0.624040     -1.227249      0.005110
  C      -1.349984     -0.101971      0.002260
  H      -1.352412      2.076630      0.003222
  H       1.179573      2.148906      0.015155
  H       1.302932     -1.998207      0.013771
  H      -2.441161     -0.211028     -0.002883
