26
Coordinates from ORCA-job Nicotine_DFT E -498.294226159436
  C       1.380020      0.950960      1.015170
  N       2.225620      0.059600      0.212260
  C       3.424300      0.777860     -0.254490
  C       4.476470      0.624360      0.838310
  C       3.950810     -0.475310      1.753540
  C       2.780620     -1.086640      0.977190
  H       3.220200     -1.776140      0.239190
  C       1.777040     -1.920450      1.736330
  C       0.687670     -2.468840      1.056660
  N      -0.257850     -3.257310      1.621060
  C      -0.115590     -3.522890      2.934360
  C       0.928900     -3.042420      3.704440
  C       1.888400     -2.236350      3.093960
  H       1.044370      1.795980      0.402720
  H       1.887190      1.357260      1.896730
  H       0.468920      0.442570      1.346090
  H       3.236030      1.827180     -0.508200
  H       3.781630      0.295650     -1.173100
  H       4.605020      1.555130      1.401490
  H       5.446290      0.351820      0.408730
  H       3.631970     -0.028050      2.702540
  H       4.725070     -1.215960      1.980870
  H       0.540360     -2.274680     -0.003960
  H      -0.885940     -4.155200      3.365620
  H       0.998160     -3.293330      4.756920
  H       2.715470     -1.870170      3.694580
26
Coordinates from ORCA-job Nicotine_DFT E -498.297836857781
  C       1.353254      0.926244      1.018878
  N       2.219780      0.051838      0.220742
  C       3.418538      0.759863     -0.261771
  C       4.503638      0.635253      0.840518
  C       3.984415     -0.480022      1.772062
  C       2.799748     -1.080090      0.984415
  H       3.233850     -1.762857      0.228125
  C       1.785353     -1.910201      1.740326
  C       0.680391     -2.438741      1.056126
  N      -0.263756     -3.215025      1.613806
  C      -0.128687     -3.503871      2.919163
  C       0.929219     -3.042081      3.698404
  C       1.897601     -2.232637      3.098102
  H       0.999597      1.758974      0.391318
  H       1.847741      1.361643      1.910534
  H       0.455168      0.386046      1.355943
  H       3.196090      1.802980     -0.527141
  H       3.768548      0.265645     -1.185514
  H       4.631068      1.577109      1.395605
  H       5.479669      0.375113      0.402579
  H       3.655490     -0.048310      2.730159
  H       4.757132     -1.230715      1.999546
  H       0.538181     -2.224270     -0.009644
  H      -0.911329     -4.139594      3.350750
  H       0.996760     -3.308414      4.755805
  H       2.733693     -1.869250      3.700175
26
Coordinates from ORCA-job Nicotine_DFT E -498.298336949588
  C       1.356527      0.934974      1.022580
  N       2.217571      0.053869      0.230852
  C       3.415746      0.744483     -0.270481
  C       4.507967      0.642365      0.839415
  C       3.989171     -0.475176      1.781955
  C       2.802338     -1.075895      0.991282
  H       3.237824     -1.749205      0.226281
  C       1.785311     -1.910406      1.744691
  C       0.675740     -2.433989      1.056829
  N      -0.263887     -3.206523      1.611764
  C      -0.134100     -3.508106      2.912433
  C       0.928106     -3.053326      3.695497
  C       1.900593     -2.241923      3.100511
  H       1.003025      1.759141      0.382665
  H       1.849486      1.386016      1.910595
  H       0.465333      0.391404      1.371162
  H       3.177877      1.781221     -0.551395
  H       3.762705      0.231402     -1.185141
  H       4.630725      1.592533      1.381802
  H       5.486522      0.388007      0.402951
  H       3.650897     -0.049161      2.739875
  H       4.756910     -1.229385      2.014207
  H       0.540437     -2.204688     -0.007762
  H      -0.915850     -4.145915      3.344796
  H       0.995166     -3.328088      4.751610
  H       2.739009     -1.879000      3.700037
26
Coordinates from ORCA-job Nicotine_DFT E -498.298412026393
  C       1.358952      0.938936      1.020740
  N       2.218010      0.054546      0.233062
  C       3.416772      0.738564     -0.273304
  C       4.505991      0.644978      0.841731
  C       3.987769     -0.473315      1.784256
  C       2.801396     -1.075475      0.992900
  H       3.238508     -1.744627      0.225875
  C       1.784692     -1.910715      1.745828
  C       0.670708     -2.428496      1.058405
  N      -0.266357     -3.200951      1.613727
  C      -0.135131     -3.509604      2.912110
  C       0.930342     -3.059585      3.693853
  C       1.903099     -2.247382      3.099893
  H       1.005334      1.758792      0.375836
  H       1.850388      1.397143      1.905675
  H       0.471439      0.393770      1.375470
  H       3.175591      1.772241     -0.562324
  H       3.766621      0.215597     -1.180315
  H       4.622172      1.597735      1.380376
  H       5.487232      0.395513      0.409121
  H       3.644848     -0.050075      2.741525
  H       4.753613     -1.228590      2.017901
  H       0.539246     -2.190835     -0.004607
  H      -0.914571     -4.147229      3.347354
  H       0.999543     -3.339148      4.748253
  H       2.744943     -1.887159      3.695669
26
Coordinates from ORCA-job Nicotine_DFT E -498.298439082882
  C       1.359659      0.940671      1.016306
  N       2.218797      0.053978      0.232232
  C       3.418647      0.735472     -0.274346
  C       4.502935      0.647044      0.845158
  C       3.986241     -0.472346      1.784987
  C       2.800246     -1.076055      0.993519
  H       3.238899     -1.744022      0.226678
  C       1.784304     -1.910880      1.746605
  C       0.666200     -2.423041      1.060619
  N      -0.270583     -3.194461      1.616804
  C      -0.135920     -3.508613      2.913443
  C       0.933668     -3.064889      3.692671
  C       1.906763     -2.253392      3.098632
  H       1.004931      1.757319      0.368201
  H       1.850069      1.404241      1.898691
  H       0.474642      0.394702      1.375614
  H       3.177608      1.767167     -0.569823
  H       3.772873      0.205403     -1.175071
  H       4.611295      1.600897      1.383258
  H       5.487353      0.403277      0.416834
  H       3.640866     -0.051143      2.742155
  H       4.751884     -1.227746      2.018379
  H       0.535547     -2.177260     -0.000422
  H      -0.913948     -4.145410      3.351485
  H       1.005548     -3.348915      4.745502
  H       2.752629     -1.897369      3.690901
26
Coordinates from ORCA-job Nicotine_DFT E -498.298451602400
  C       1.360024      0.941279      1.012095
  N       2.219376      0.052769      0.230305
  C       3.420360      0.733296     -0.275057
  C       4.500235      0.649084      0.848138
  C       3.985321     -0.471781      1.785433
  C       2.799451     -1.076639      0.993871
  H       3.239106     -1.745347      0.228255
  C       1.783717     -1.910380      1.747374
  C       0.661942     -2.417359      1.063156
  N      -0.274795     -3.188743      1.619454
  C      -0.136274     -3.507581      2.914574
  C       0.936654     -3.069144      3.691853
  C       1.909796     -2.258013      3.097720
  H       1.003767      1.755706      0.362067
  H       1.850779      1.408441      1.892343
  H       0.476330      0.395561      1.374901
  H       3.180618      1.763567     -0.576072
  H       3.778319      0.198102     -1.171253
  H       4.601073      1.603468      1.386831
  H       5.487688      0.410962      0.423672
  H       3.639141     -0.052187      2.743028
  H       4.751611     -1.226852      2.017710
  H       0.530872     -2.166630      0.003387
  H      -0.913780     -4.143876      3.354151
  H       1.010899     -3.357098      4.743412
  H       2.758918     -1.905975      3.687661
26
Coordinates from ORCA-job Nicotine_DFT E -498.298463543566
  C       1.360786      0.941660      1.006594
  N       2.220109      0.050600      0.227367
  C       3.422528      0.729927     -0.276428
  C       4.496641      0.652712      0.851981
  C       3.984401     -0.470830      1.786534
  C       2.798943     -1.077252      0.994483
  H       3.239930     -1.747656      0.231032
  C       1.783053     -1.909743      1.748412
  C       0.656537     -2.409785      1.066707
  N      -0.280814     -3.180491      1.623092
  C      -0.137191     -3.505713      2.916113
  C       0.940654     -3.075121      3.690789
  C       1.914031     -2.264527      3.096500
  H       1.002598      1.753366      0.354164
  H       1.852742      1.412866      1.884056
  H       0.478117      0.397060      1.373491
  H       3.184389      1.758126     -0.585450
  H       3.785196      0.188285     -1.166952
  H       4.586587      1.607835      1.391470
  H       5.488412      0.422879      0.433023
  H       3.637764     -0.053679      2.745064
  H       4.752108     -1.225078      2.016862
  H       0.522824     -2.152452      0.008855
  H      -0.914653     -4.141445      3.356743
  H       1.018173     -3.368681      4.740577
  H       2.767285     -1.918233      3.683931
26
Coordinates from ORCA-job Nicotine_DFT E -498.298474294641
  C       1.362207      0.942230      1.001077
  N       2.220878      0.048155      0.224172
  C       3.424834      0.725727     -0.278350
  C       4.492699      0.657370      0.856012
  C       3.983556     -0.469888      1.788014
  C       2.798630     -1.077641      0.995190
  H       3.240876     -1.750196      0.234292
  C       1.782092     -1.908877      1.749480
  C       0.650503     -2.401313      1.070713
  N      -0.287158     -3.171815      1.627140
  C      -0.138127     -3.504203      2.917761
  C       0.944816     -3.081539      3.689715
  C       1.918298     -2.271287      3.095150
  H       1.002698      1.751439      0.346177
  H       1.855856      1.416744      1.875827
  H       0.479842      0.399538      1.371480
  H       3.188126      1.751439     -0.596645
  H       3.792294      0.177279     -1.162840
  H       4.570010      1.613263      1.396250
  H       5.489356      0.437246      0.443459
  H       3.637169     -0.056049      2.748084
  H       4.753097     -1.223177      2.015393
  H       0.512954     -2.138215      0.014752
  H      -0.915888     -4.139470      3.358771
  H       1.025940     -3.381029      4.737589
  H       2.775594     -1.931101      3.680344
26
Coordinates from ORCA-job Nicotine_DFT E -498.298481474948
  C       1.363578      0.942595      0.997012
  N       2.221600      0.046188      0.221762
  C       3.426683      0.722096     -0.280082
  C       4.489513      0.661736      0.859226
  C       3.983165     -0.469393      1.789264
  C       2.798689     -1.077794      0.995695
  H       3.241762     -1.752030      0.236779
  C       1.781326     -1.908294      1.750115
  C       0.645971     -2.394973      1.073736
  N      -0.291964     -3.164970      1.630636
  C      -0.139134     -3.502828      2.919383
  C       0.947976     -3.086321      3.688989
  C       1.921526     -2.276442      3.093924
  H       1.004333      1.750503      0.340286
  H       1.858119      1.418410      1.870508
  H       0.480584      0.401674      1.368501
  H       3.190504      1.745620     -0.605978
  H       3.797844      0.168597     -1.159907
  H       4.555977      1.618137      1.400053
  H       5.490248      0.450039      0.452194
  H       3.637805     -0.059093      2.751196
  H       4.754457     -1.221936      2.013162
  H       0.504123     -2.127845      0.019350
  H      -0.917387     -4.137735      3.360161
  H       1.032104     -3.390226      4.735380
  H       2.781746     -1.941087      3.677665
26
Coordinates from ORCA-job Nicotine_DFT E -498.298484145822
  C       1.364133      0.942613      0.994879
  N       2.222163      0.045253      0.220678
  C       3.427749      0.720214     -0.280959
  C       4.487891      0.664296      0.860979
  C       3.983237     -0.469428      1.789804
  C       2.798902     -1.077838      0.995897
  H       3.242212     -1.752793      0.237803
  C       1.780938     -1.908016      1.750350
  C       0.643586     -2.391578      1.075304
  N      -0.294290     -3.161251      1.632812
  C      -0.139718     -3.502045      2.920545
  C       0.949596     -3.088488      3.688768
  C       1.923119     -2.278909      3.093208
  H       1.006647      1.750623      0.337333
  H       1.858029      1.417820      1.868981
  H       0.480021      0.402540      1.364899
  H       3.191249      1.742514     -0.610641
  H       3.800880      0.164451     -1.158483
  H       4.548297      1.620878      1.402171
  H       5.490867      0.457296      0.457105
  H       3.639080     -0.061662      2.753198
  H       4.755580     -1.221700      2.010932
  H       0.499122     -2.123050      0.021663
  H      -0.918396     -4.136573      3.361069
  H       1.035477     -3.394394      4.734438
  H       2.784782     -1.946141      3.676277
26
Coordinates from ORCA-job Nicotine_DFT E -498.298484410242
  C       1.363977      0.942408      0.994698
  N       2.222347      0.045252      0.220689
  C       3.427901      0.720176     -0.280957
  C       4.487732      0.664716      0.861227
  C       3.983506     -0.469767      1.789611
  C       2.799035     -1.077885      0.995770
  H       3.242185     -1.752780      0.237560
  C       1.780956     -1.908052      1.750235
  C       0.643530     -2.391545      1.075313
  N      -0.294286     -3.160968      1.633251
  C      -0.139875     -3.501710      2.920987
  C       0.949682     -3.088213      3.688934
  C       1.923202     -2.278866      3.093072
  H       1.008343      1.751412      0.337405
  H       1.856759      1.416104      1.870220
  H       0.478906      0.402417      1.362536
  H       3.190919      1.742348     -0.610736
  H       3.801284      0.164525     -1.158414
  H       4.547165      1.621212      1.402646
  H       5.491064      0.458469      0.457885
  H       3.640107     -0.062874      2.753625
  H       4.756095     -1.222139      2.009527
  H       0.498521     -2.123355      0.021683
  H      -0.918677     -4.136070      3.361455
  H       1.035859     -3.393909      4.734635
  H       2.784913     -1.946278      3.676152
