6
Coordinates from ORCA-job FeSO4_DFT E -1962.027857220222
  O       1.226990     -0.352360     -0.511720
  S       2.694380     -0.265330     -0.379230
  O       3.578920     -0.778160     -1.350210
  O       2.667370      1.160410      0.001430
  O       2.687710     -0.733740      1.020380
  Fe      1.265740      0.562980      1.189030
6
Coordinates from ORCA-job FeSO4_DFT E -1962.059205987399
  O       1.184716     -0.366846     -0.538621
  S       2.687408     -0.261202     -0.371662
  O       3.587956     -0.783325     -1.359041
  O       2.685055      1.209222     -0.004562
  O       2.706754     -0.765179      1.057403
  Fe      1.269221      0.561130      1.186163
6
Coordinates from ORCA-job FeSO4_DFT E -1962.073989529717
  O       1.143830     -0.384443     -0.570376
  S       2.676494     -0.254813     -0.360340
  O       3.594182     -0.786719     -1.364271
  O       2.707384      1.258047     -0.014341
  O       2.730052     -0.799747      1.091710
  Fe      1.269167      0.561474      1.187298
6
Coordinates from ORCA-job FeSO4_DFT E -1962.076625498739
  O       1.129494     -0.393796     -0.587420
  S       2.669556     -0.250830     -0.353064
  O       3.593585     -0.786264     -1.363038
  O       2.720107      1.277049     -0.021888
  O       2.743102     -0.816200      1.103030
  Fe      1.265267      0.563840      1.192060
6
Coordinates from ORCA-job FeSO4_DFT E -1962.078074898099
  O       1.124818     -0.401143     -0.601026
  S       2.663385     -0.247328     -0.346444
  O       3.589947     -0.784127     -1.359023
  O       2.730866      1.285893     -0.029915
  O       2.753945     -0.827453      1.105944
  Fe      1.258149      0.567957      1.200142
6
Coordinates from ORCA-job FeSO4_DFT E -1962.080003584877
  O       1.127113     -0.410937     -0.619588
  S       2.654312     -0.242210     -0.336555
  O       3.581626     -0.779362     -1.350388
  O       2.746228      1.289856     -0.043445
  O       2.769217     -0.840357      1.102121
  Fe      1.242614      0.576810      1.217535
6
Coordinates from ORCA-job FeSO4_DFT E -1962.081654520309
  O       1.138926     -0.418784     -0.635228
  S       2.646251     -0.237685     -0.327783
  O       3.571971     -0.773976     -1.340595
  O       2.759811      1.283867     -0.057781
  O       2.782541     -0.848254      1.089945
  Fe      1.221611      0.588632      1.241122
6
Coordinates from ORCA-job FeSO4_DFT E -1962.082313063344
  O       1.150121     -0.420191     -0.639402
  S       2.644472     -0.236648     -0.326290
  O       3.569048     -0.772577     -1.337155
  O       2.763507      1.274566     -0.064107
  O       2.786079     -0.847560      1.079164
  Fe      1.207883      0.596210      1.257471
6
Coordinates from ORCA-job FeSO4_DFT E -1962.082590495190
  O       1.155167     -0.418504     -0.638075
  S       2.646378     -0.237591     -0.329359
  O       3.571657     -0.774428     -1.338590
  O       2.761710      1.269204     -0.064881
  O       2.784148     -0.844109      1.074371
  Fe      1.202050      0.599227      1.266214
6
Coordinates from ORCA-job FeSO4_DFT E -1962.082833432385
  O       1.157769     -0.416027     -0.636415
  S       2.649893     -0.239304     -0.335168
  O       3.577579     -0.778429     -1.342275
  O       2.758453      1.265950     -0.064727
  O       2.780374     -0.839883      1.071862
  Fe      1.197042      0.601493      1.276404
6
Coordinates from ORCA-job FeSO4_DFT E -1962.083002635860
  O       1.157590     -0.415088     -0.637977
  S       2.652310     -0.240351     -0.340348
  O       3.583191     -0.782287     -1.345097
  O       2.757084      1.266373     -0.065870
  O       2.777851     -0.837852      1.071907
  Fe      1.193084      0.603005      1.287066
6
Coordinates from ORCA-job FeSO4_DFT E -1962.083168659156
  O       1.156229     -0.415858     -0.644200
  S       2.653157     -0.240422     -0.345296
  O       3.588568     -0.786124     -1.346040
  O       2.757959      1.269335     -0.069857
  O       2.776309     -0.837448      1.072996
  Fe      1.188887      0.604317      1.302078
6
Coordinates from ORCA-job FeSO4_DFT E -1962.083362347489
  O       1.154946     -0.418333     -0.655758
  S       2.651723     -0.239161     -0.349990
  O       3.593416     -0.789650     -1.343909
  O       2.760910      1.273759     -0.077545
  O       2.774853     -0.837805      1.074098
  Fe      1.185262      0.604991      1.322783
6
Coordinates from ORCA-job FeSO4_DFT E -1962.083771950139
  O       1.154187     -0.424333     -0.682575
  S       2.645956     -0.235279     -0.358428
  O       3.601683     -0.795291     -1.335650
  O       2.767337      1.281770     -0.095862
  O       2.770068     -0.837550      1.075249
  Fe      1.181880      0.604484      1.366947
6
Coordinates from ORCA-job FeSO4_DFT E -1962.084677320692
  O       1.155650     -0.434241     -0.727022
  S       2.634077     -0.228200     -0.370675
  O       3.612884     -0.802032     -1.318764
  O       2.776058      1.292209     -0.126200
  O       2.758105     -0.834358      1.076440
  Fe      1.184335      0.600422      1.435901
6
Coordinates from ORCA-job FeSO4_DFT E -1962.086286045593
  O       1.157669     -0.446107     -0.776661
  S       2.617562     -0.219254     -0.381297
  O       3.620392     -0.805645     -1.295684
  O       2.784709      1.303242     -0.158141
  O       2.740803     -0.828142      1.080417
  Fe      1.199975      0.589707      1.501045
6
Coordinates from ORCA-job FeSO4_DFT E -1962.089259427341
  O       1.161320     -0.465253     -0.825077
  S       2.590918     -0.206017     -0.380848
  O       3.609853     -0.796170     -1.262441
  O       2.794786      1.312139     -0.180069
  O       2.708998     -0.809872      1.093122
  Fe      1.255235      0.558973      1.524993
6
Coordinates from ORCA-job FeSO4_DFT E -1962.091071924144
  O       1.166683     -0.472141     -0.876275
  S       2.571651     -0.196382     -0.392185
  O       3.616128     -0.800740     -1.234060
  O       2.794994      1.319742     -0.211081
  O       2.684129     -0.795784      1.098805
  Fe      1.287525      0.539104      1.584476
6
Coordinates from ORCA-job FeSO4_DFT E -1962.093417577677
  O       1.180405     -0.474222     -0.920217
  S       2.552901     -0.184789     -0.403595
  O       3.623462     -0.809435     -1.204729
  O       2.781923      1.317948     -0.233517
  O       2.646329     -0.768463      1.098316
  Fe      1.336090      0.512761      1.633423
6
Coordinates from ORCA-job FeSO4_DFT E -1962.096088209061
  O       1.192383     -0.472168     -0.954882
  S       2.546111     -0.178961     -0.419844
  O       3.639639     -0.822830     -1.190184
  O       2.770984      1.314930     -0.258695
  O       2.628514     -0.757949      1.086712
  Fe      1.343480      0.510779      1.706574
6
Coordinates from ORCA-job FeSO4_DFT E -1962.097950915624
  O       1.209575     -0.469096     -0.943811
  S       2.565921     -0.179447     -0.436084
  O       3.672491     -0.844343     -1.208311
  O       2.740227      1.291124     -0.247161
  O       2.592643     -0.733956      1.044688
  Fe      1.340254      0.529518      1.760359
6
Coordinates from ORCA-job FeSO4_DFT E -1962.100279399759
  O       1.207439     -0.475177     -0.994501
  S       2.555109     -0.176748     -0.446423
  O       3.677143     -0.846984     -1.184316
  O       2.744208      1.307240     -0.280973
  O       2.580952     -0.733394      1.055475
  Fe      1.356259      0.518864      1.820418
6
Coordinates from ORCA-job FeSO4_DFT E -1962.101897154483
  O       1.215379     -0.482866     -1.039609
  S       2.548420     -0.173532     -0.456410
  O       3.684002     -0.851063     -1.165455
  O       2.740732      1.311482     -0.307334
  O       2.556563     -0.722149      1.052401
  Fe      1.376014      0.511928      1.886086
6
Coordinates from ORCA-job FeSO4_DFT E -1962.103079258767
  O       1.219102     -0.510325     -1.080630
  S       2.550872     -0.179232     -0.451326
  O       3.679688     -0.835991     -1.158955
  O       2.751593      1.321037     -0.322326
  O       2.523041     -0.717919      1.046945
  Fe      1.396813      0.516229      1.935971
6
Coordinates from ORCA-job FeSO4_DFT E -1962.104520000028
  O       1.234462     -0.505903     -1.117497
  S       2.542148     -0.172306     -0.468124
  O       3.692795     -0.851950     -1.137143
  O       2.734542      1.314908     -0.346142
  O       2.501486     -0.697511      1.035317
  Fe      1.415677      0.506563      2.003270
6
Coordinates from ORCA-job FeSO4_DFT E -1962.105362004691
  O       1.245939     -0.513223     -1.159360
  S       2.536541     -0.169254     -0.478339
  O       3.698923     -0.857731     -1.116525
  O       2.727143      1.317705     -0.369498
  O       2.473874     -0.682924      1.026731
  Fe      1.438689      0.499228      2.066670
6
Coordinates from ORCA-job FeSO4_DFT E -1962.105980080838
  O       1.258796     -0.519044     -1.197533
  S       2.530707     -0.164906     -0.489705
  O       3.706835     -0.864944     -1.091285
  O       2.716278      1.321268     -0.393609
  O       2.442479     -0.669222      1.013635
  Fe      1.466015      0.490649      2.128176
6
Coordinates from ORCA-job FeSO4_DFT E -1962.106402784831
  O       1.270534     -0.526543     -1.235920
  S       2.524291     -0.161566     -0.499254
  O       3.714053     -0.867635     -1.064496
  O       2.707653      1.326944     -0.419475
  O       2.407022     -0.658620      1.003714
  Fe      1.497557      0.481219      2.185110
6
Coordinates from ORCA-job FeSO4_DFT E -1962.106703566316
  O       1.282179     -0.534153     -1.267923
  S       2.518266     -0.158320     -0.508164
  O       3.723466     -0.867143     -1.037618
  O       2.699123      1.331523     -0.444503
  O       2.366413     -0.651115      0.991105
  Fe      1.531663      0.473008      2.236783
6
Coordinates from ORCA-job FeSO4_DFT E -1962.106867409303
  O       1.292010     -0.542471     -1.292987
  S       2.512846     -0.155337     -0.515135
  O       3.733382     -0.862755     -1.012449
  O       2.692612      1.335679     -0.466540
  O       2.323333     -0.646827      0.979440
  Fe      1.566927      0.465510      2.277351
6
Coordinates from ORCA-job FeSO4_DFT E -1962.106926592645
  O       1.292060     -0.544352     -1.289347
  S       2.513028     -0.154320     -0.514561
  O       3.736267     -0.858596     -1.010774
  O       2.693496      1.336530     -0.468087
  O       2.314058     -0.652587      0.976805
  Fe      1.572202      0.467124      2.275644
6
Coordinates from ORCA-job FeSO4_DFT E -1962.106947947123
  O       1.291641     -0.544431     -1.287187
  S       2.512854     -0.153551     -0.513831
  O       3.737652     -0.855505     -1.010010
  O       2.693943      1.336641     -0.468942
  O       2.309737     -0.657489      0.978200
  Fe      1.575283      0.468135      2.271450
6
Coordinates from ORCA-job FeSO4_DFT E -1962.106954490779
  O       1.291184     -0.543949     -1.285625
  S       2.513305     -0.153543     -0.513489
  O       3.737832     -0.854741     -1.011313
  O       2.694079      1.336162     -0.468028
  O       2.310507     -0.659927      0.978647
  Fe      1.574203      0.469798      2.269488
6
Coordinates from ORCA-job FeSO4_DFT E -1962.106965281414
  O       1.290961     -0.543212     -1.285402
  S       2.513659     -0.153715     -0.513339
  O       3.738125     -0.853800     -1.012217
  O       2.693173      1.335103     -0.466250
  O       2.310884     -0.662741      0.979635
  Fe      1.574308      0.472165      2.267253
6
Coordinates from ORCA-job FeSO4_DFT E -1962.106986032931
  O       1.291075     -0.542709     -1.286443
  S       2.514058     -0.154424     -0.513161
  O       3.738676     -0.852030     -1.013121
  O       2.690724      1.333232     -0.461580
  O       2.310192     -0.667294      0.980356
  Fe      1.576385      0.477025      2.263629
6
Coordinates from ORCA-job FeSO4_DFT E -1962.107028487150
  O       1.292360     -0.542952     -1.290792
  S       2.513950     -0.156244     -0.512819
  O       3.740019     -0.848167     -1.012993
  O       2.684545      1.329895     -0.450794
  O       2.305805     -0.675874      0.980284
  Fe      1.584430      0.487143      2.256793
6
Coordinates from ORCA-job FeSO4_DFT E -1962.107113273515
  O       1.296460     -0.545175     -1.302487
  S       2.512146     -0.160500     -0.511888
  O       3.743183     -0.839818     -1.009953
  O       2.670405      1.323966     -0.427228
  O       2.292707     -0.692699      0.978004
  Fe      1.606210      0.508026      2.243232
6
Coordinates from ORCA-job FeSO4_DFT E -1962.107265286214
  O       1.303940     -0.549727     -1.321583
  S       2.507481     -0.167992     -0.509313
  O       3.747809     -0.826895     -1.003719
  O       2.647281      1.315500     -0.387326
  O       2.271014     -0.717527      0.972826
  Fe      1.643585      0.540441      2.218794
6
Coordinates from ORCA-job FeSO4_DFT E -1962.107598617427
  O       1.313691     -0.555967     -1.344031
  S       2.499609     -0.177679     -0.505055
  O       3.752588     -0.812509     -0.995050
  O       2.620385      1.306701     -0.339134
  O       2.245747     -0.742772      0.965200
  Fe      1.689091      0.576027      2.187749
6
Coordinates from ORCA-job FeSO4_DFT E -1962.108326120980
  O       1.323471     -0.561755     -1.362549
  S       2.488390     -0.189768     -0.497799
  O       3.756472     -0.798465     -0.987655
  O       2.595922      1.299956     -0.287922
  O       2.224607     -0.766260      0.956547
  Fe      1.732249      0.610093      2.149058
6
Coordinates from ORCA-job FeSO4_DFT E -1962.108383452530
  O       1.322893     -0.561389     -1.359436
  S       2.487866     -0.190886     -0.496826
  O       3.761078     -0.794626     -0.986636
  O       2.596697      1.302204     -0.293555
  O       2.216875     -0.772216      0.955819
  Fe      1.735702      0.610713      2.150315
6
Coordinates from ORCA-job FeSO4_DFT E -1962.108400015009
  O       1.327738     -0.564928     -1.371559
  S       2.484273     -0.191792     -0.498693
  O       3.764607     -0.791796     -0.977717
  O       2.589071      1.302301     -0.296969
  O       2.202391     -0.771381      0.953002
  Fe      1.753030      0.611396      2.161617
6
Coordinates from ORCA-job FeSO4_DFT E -1962.108429609936
  O       1.340186     -0.572330     -1.396541
  S       2.475807     -0.192923     -0.501022
  O       3.769685     -0.786432     -0.957351
  O       2.571605      1.303078     -0.302793
  O       2.172143     -0.769088      0.946503
  Fe      1.791684      0.611495      2.180884
6
Coordinates from ORCA-job FeSO4_DFT E -1962.108506656952
  O       1.359343     -0.585738     -1.432306
  S       2.461636     -0.196416     -0.501804
  O       3.774861     -0.777703     -0.926593
  O       2.544822      1.305613     -0.299274
  O       2.127960     -0.766322      0.933595
  Fe      1.852487      0.614365      2.196062
6
Coordinates from ORCA-job FeSO4_DFT E -1962.108528022207
  O       1.369433     -0.590988     -1.445640
  S       2.452010     -0.198245     -0.499240
  O       3.774988     -0.773459     -0.909501
  O       2.531910      1.308790     -0.292296
  O       2.109876     -0.767306      0.927009
  Fe      1.882891      0.615008      2.189347
6
Coordinates from ORCA-job FeSO4_DFT E -1962.103880362832
  O       1.364611     -0.577463     -1.458326
  S       2.475497     -0.184279     -0.501557
  O       3.775239     -0.735430     -0.912511
  O       2.526820      1.256975     -0.289219
  O       2.075421     -0.806355      0.963307
  Fe      1.903523      0.640352      2.167987
6
Coordinates from ORCA-job FeSO4_DFT E -1962.109158285718
  O       1.371220     -0.592210     -1.455170
  S       2.455711     -0.198492     -0.499342
  O       3.777358     -0.762063     -0.906551
  O       2.522012      1.298507     -0.272767
  O       2.091147     -0.784375      0.929675
  Fe      1.903662      0.632433      2.173836
6
Coordinates from ORCA-job FeSO4_DFT E -1962.109436507197
  O       1.378012     -0.594637     -1.463992
  S       2.451147     -0.200277     -0.498575
  O       3.778697     -0.757836     -0.895672
  O       2.510083      1.296587     -0.262523
  O       2.076528     -0.787921      0.924135
  Fe      1.926643      0.637884      2.166307
6
Coordinates from ORCA-job FeSO4_DFT E -1962.109995430412
  O       1.379304     -0.582835     -1.436772
  S       2.448067     -0.203947     -0.492951
  O       3.777784     -0.762804     -0.903744
  O       2.506188      1.286977     -0.222432
  O       2.093895     -0.800302      0.909084
  Fe      1.915873      0.656712      2.116495
6
Coordinates from ORCA-job FeSO4_DFT E -1962.110116012710
  O       1.377918     -0.585680     -1.449894
  S       2.449780     -0.204015     -0.495084
  O       3.776494     -0.762398     -0.901600
  O       2.506228      1.290154     -0.230835
  O       2.092385     -0.799298      0.915500
  Fe      1.918306      0.655037      2.131593
