6
Coordinates from ORCA-job MgSO4_DFT E -898.489352286869
  O       1.503880      0.553260     -0.351530
  S       2.944550      0.218130     -0.166070
  O       2.639690     -0.966720      0.685640
  O       3.531550     -0.194550     -1.413690
  O       3.604910      1.238020      0.605430
  Mg      0.906560     -0.774030      0.611700
6
Coordinates from ORCA-job MgSO4_DFT E -898.525333152437
  O       1.471977      0.567686     -0.367501
  S       2.934967      0.213940     -0.165550
  O       2.644680     -0.995375      0.701779
  O       3.570263     -0.180207     -1.432764
  O       3.638128      1.255954      0.601915
  Mg      0.871125     -0.787887      0.633601
6
Coordinates from ORCA-job MgSO4_DFT E -898.562908468856
  O       1.440067      0.595007     -0.391122
  S       2.924049      0.206613     -0.165120
  O       2.661680     -1.030161      0.723443
  O       3.616523     -0.159259     -1.452598
  O       3.677240      1.275537      0.592307
  Mg      0.811581     -0.813626      0.664570
6
Coordinates from ORCA-job MgSO4_DFT E -898.587392482759
  O       1.423985      0.620518     -0.413910
  S       2.916611      0.199509     -0.165302
  O       2.683197     -1.056746      0.738906
  O       3.653623     -0.137102     -1.464348
  O       3.706758      1.288467      0.579323
  Mg      0.746967     -0.840536      0.696810
6
Coordinates from ORCA-job MgSO4_DFT E -898.604353463247
  O       1.423391      0.644107     -0.431995
  S       2.913064      0.194060     -0.166134
  O       2.707739     -1.071831      0.750403
  O       3.679770     -0.117561     -1.471169
  O       3.728158      1.296019      0.564911
  Mg      0.679019     -0.870684      0.725464
6
Coordinates from ORCA-job MgSO4_DFT E -898.617501701180
  O       1.436391      0.666803     -0.442812
  S       2.913016      0.192461     -0.167314
  O       2.735184     -1.071461      0.759089
  O       3.692131     -0.105916     -1.474588
  O       3.743134      1.298269      0.551613
  Mg      0.611285     -0.906046      0.745493
6
Coordinates from ORCA-job MgSO4_DFT E -898.628937740959
  O       1.461476      0.688243     -0.446778
  S       2.916349      0.195438     -0.167949
  O       2.764766     -1.058026      0.760987
  O       3.691087     -0.105034     -1.473956
  O       3.750424      1.297523      0.541142
  Mg      0.547037     -0.944034      0.758034
6
Coordinates from ORCA-job MgSO4_DFT E -898.638693258115
  O       1.495027      0.705115     -0.450260
  S       2.923041      0.203099     -0.167971
  O       2.795197     -1.037364      0.750359
  O       3.681128     -0.112481     -1.468352
  O       3.750015      1.295545      0.536452
  Mg      0.486731     -0.979803      0.771252
6
Coordinates from ORCA-job MgSO4_DFT E -898.646756215269
  O       1.528589      0.718046     -0.456541
  S       2.932769      0.212335     -0.167311
  O       2.823168     -1.018750      0.733544
  O       3.670721     -0.121246     -1.462366
  O       3.748994      1.296949      0.535609
  Mg      0.426900     -1.013224      0.788544
6
Coordinates from ORCA-job MgSO4_DFT E -898.654808577541
  O       1.555214      0.731376     -0.463288
  S       2.943461      0.221252     -0.167277
  O       2.848196     -1.004067      0.719316
  O       3.665902     -0.128509     -1.459631
  O       3.753630      1.302011      0.534856
  Mg      0.364738     -1.047953      0.807504
6
Coordinates from ORCA-job MgSO4_DFT E -898.664067990934
  O       1.562783      0.747252     -0.471309
  S       2.953411      0.225358     -0.168095
  O       2.868649     -1.004254      0.725066
  O       3.676869     -0.123980     -1.470503
  O       3.773809      1.313969      0.529480
  Mg      0.295619     -1.084234      0.826840
6
Coordinates from ORCA-job MgSO4_DFT E -898.672752682103
  O       1.574875      0.760033     -0.480654
  S       2.964474      0.231159     -0.168629
  O       2.889585     -1.002452      0.723349
  O       3.685112     -0.121575     -1.478140
  O       3.789580      1.325372      0.526904
  Mg      0.227513     -1.118428      0.848650
6
Coordinates from ORCA-job MgSO4_DFT E -898.680726745792
  O       1.589234      0.774138     -0.485864
  S       2.976387      0.236483     -0.169472
  O       2.909919     -0.997670      0.724466
  O       3.690653     -0.120589     -1.486335
  O       3.805244      1.336461      0.522132
  Mg      0.159703     -1.154713      0.866553
6
Coordinates from ORCA-job MgSO4_DFT E -898.688756914955
  O       1.604087      0.788582     -0.489675
  S       2.988098      0.242794     -0.171276
  O       2.929607     -0.990233      0.723786
  O       3.696145     -0.121352     -1.492972
  O       3.820498      1.346206      0.517371
  Mg      0.092705     -1.191887      0.884246
6
Coordinates from ORCA-job MgSO4_DFT E -898.688992981425
  O       1.607629      0.785627     -0.491912
  S       2.990009      0.244920     -0.172288
  O       2.929021     -0.988239      0.715362
  O       3.695040     -0.122979     -1.489013
  O       3.815284      1.344526      0.521043
  Mg      0.094157     -1.189746      0.888287
6
Coordinates from ORCA-job MgSO4_DFT E -898.689143988203
  O       1.612792      0.783199     -0.490779
  S       2.993077      0.245130     -0.174507
  O       2.926740     -0.984524      0.712166
  O       3.693552     -0.122180     -1.486826
  O       3.809652      1.341286      0.521453
  Mg      0.095327     -1.188801      0.889975
6
Coordinates from ORCA-job MgSO4_DFT E -898.689191072990
  O       1.614080      0.784000     -0.486992
  S       2.993946      0.244380     -0.176271
  O       2.924722     -0.981202      0.716129
  O       3.693085     -0.121203     -1.487442
  O       3.809905      1.339012      0.518498
  Mg      0.095402     -1.190876      0.887558
6
Coordinates from ORCA-job MgSO4_DFT E -898.689200111135
  O       1.613903      0.784568     -0.485066
  S       2.993730      0.244282     -0.176868
  O       2.923298     -0.979710      0.718717
  O       3.693193     -0.120553     -1.487669
  O       3.811764      1.338129      0.516365
  Mg      0.095252     -1.192606      0.886001
6
Coordinates from ORCA-job MgSO4_DFT E -898.689219069404
  O       1.614044      0.782151     -0.489944
  S       2.993576      0.244730     -0.175795
  O       2.924709     -0.983345      0.713394
  O       3.694766     -0.119441     -1.486597
  O       3.809390      1.339389      0.519694
  Mg      0.094656     -1.189374      0.890728
6
Coordinates from ORCA-job MgSO4_DFT E -898.689237048615
  O       1.613678      0.785986     -0.482110
  S       2.993501      0.244555     -0.177122
  O       2.921530     -0.977589      0.721895
  O       3.692419     -0.121057     -1.487812
  O       3.814945      1.337845      0.513483
  Mg      0.095067     -1.195630      0.883146
6
Coordinates from ORCA-job MgSO4_DFT E -898.689261052641
  O       1.614175      0.780555     -0.492218
  S       2.993377      0.244975     -0.175785
  O       2.924019     -0.984961      0.711078
  O       3.696812     -0.117584     -1.485892
  O       3.808853      1.339460      0.520479
  Mg      0.093903     -1.188335      0.893817
6
Coordinates from ORCA-job MgSO4_DFT E -898.689284289110
  O       1.613731      0.787946     -0.478629
  S       2.993559      0.244876     -0.177264
  O       2.919978     -0.974985      0.725249
  O       3.690786     -0.122481     -1.488075
  O       3.817984      1.337752      0.510650
  Mg      0.095102     -1.198998      0.879549
6
Coordinates from ORCA-job MgSO4_DFT E -898.689318122723
  O       1.614457      0.778706     -0.495415
  S       2.993405      0.245072     -0.175866
  O       2.923910     -0.987170      0.707595
  O       3.699273     -0.115752     -1.485303
  O       3.806973      1.339631      0.522437
  Mg      0.093123     -1.186377      0.898032
6
Coordinates from ORCA-job MgSO4_DFT E -898.689373678707
  O       1.613691      0.795448     -0.465475
  S       2.993872      0.245329     -0.177857
  O       2.916503     -0.965106      0.738456
  O       3.683592     -0.128427     -1.489830
  O       3.827523      1.336897      0.501116
  Mg      0.095959     -1.210030      0.865069
6
Coordinates from ORCA-job MgSO4_DFT E -898.698321371906
  O       1.629292      0.809529     -0.468026
  S       3.005526      0.253246     -0.181270
  O       2.933323     -0.954003      0.735371
  O       3.690062     -0.129420     -1.493488
  O       3.842696      1.343848      0.495700
  Mg      0.030241     -1.249090      0.883193
6
Coordinates from ORCA-job MgSO4_DFT E -898.707775572010
  O       1.641997      0.822245     -0.474337
  S       3.016515      0.261692     -0.184244
  O       2.951631     -0.941731      0.732750
  O       3.696163     -0.129171     -1.497641
  O       3.860072      1.348557      0.492800
  Mg     -0.035238     -1.287482      0.902152
6
Coordinates from ORCA-job MgSO4_DFT E -898.712838963774
  O       1.649665      0.850670     -0.438759
  S       3.023535      0.267690     -0.187944
  O       2.951887     -0.905352      0.767895
  O       3.678180     -0.147960     -1.504251
  O       3.896894      1.348260      0.462293
  Mg     -0.069021     -1.339198      0.872246
6
Coordinates from ORCA-job MgSO4_DFT E -898.716725456425
  O       1.658623      0.878254     -0.398288
  S       3.030358      0.272488     -0.189509
  O       2.949216     -0.869103      0.805378
  O       3.656412     -0.167571     -1.509590
  O       3.933676      1.349288      0.426995
  Mg     -0.097145     -1.389246      0.836494
6
Coordinates from ORCA-job MgSO4_DFT E -898.718530319355
  O       1.666707      0.906012     -0.349978
  S       3.034633      0.275902     -0.188974
  O       2.941572     -0.832845      0.846113
  O       3.629979     -0.190465     -1.512115
  O       3.969649      1.350216      0.385326
  Mg     -0.111399     -1.434711      0.791107
6
Coordinates from ORCA-job MgSO4_DFT E -898.719911132431
  O       1.663526      0.880236     -0.402316
  S       3.034870      0.274577     -0.189099
  O       2.956700     -0.868832      0.803120
  O       3.659201     -0.164987     -1.510670
  O       3.936987      1.353159      0.426857
  Mg     -0.120144     -1.400043      0.843588
6
Coordinates from ORCA-job MgSO4_DFT E -898.721608962198
  O       1.663661      0.853691     -0.451362
  S       3.036818      0.273824     -0.189560
  O       2.971391     -0.903416      0.757944
  O       3.689667     -0.139345     -1.507849
  O       3.903454      1.357078      0.465493
  Mg     -0.133850     -1.367723      0.896815
6
Coordinates from ORCA-job MgSO4_DFT E -898.723868204572
  O       1.666219      0.826099     -0.499025
  S       3.040004      0.273518     -0.190588
  O       2.985471     -0.935008      0.713008
  O       3.721039     -0.111928     -1.505230
  O       3.871278      1.360090      0.502158
  Mg     -0.152871     -1.338660      0.951157
6
Coordinates from ORCA-job MgSO4_DFT E -898.726949545548
  O       1.670502      0.798465     -0.545129
  S       3.043795      0.273626     -0.192500
  O       2.999082     -0.963470      0.667844
  O       3.753639     -0.083717     -1.502287
  O       3.840054      1.361719      0.537065
  Mg     -0.175932     -1.312514      1.006487
6
Coordinates from ORCA-job MgSO4_DFT E -898.727056696534
  O       1.669393      0.802661     -0.541232
  S       3.042303      0.272440     -0.193222
  O       2.999378     -0.968169      0.665115
  O       3.759680     -0.084714     -1.499476
  O       3.837071      1.364148      0.532684
  Mg     -0.176686     -1.312256      1.007612
6
Coordinates from ORCA-job MgSO4_DFT E -898.736198099644
  O       1.683365      0.813554     -0.547135
  S       3.053126      0.277650     -0.196125
  O       3.018445     -0.963785      0.661211
  O       3.770736     -0.079210     -1.502936
  O       3.849481      1.371019      0.525578
  Mg     -0.244014     -1.345118      1.030888
6
Coordinates from ORCA-job MgSO4_DFT E -898.736235878771
  O       1.683848      0.813934     -0.546730
  S       3.053321      0.277361     -0.197192
  O       3.017453     -0.964428      0.660947
  O       3.772494     -0.077979     -1.502042
  O       3.847883      1.370100      0.524534
  Mg     -0.243859     -1.344878      1.031963
6
Coordinates from ORCA-job MgSO4_DFT E -898.736316790611
  O       1.684566      0.813461     -0.548675
  S       3.054077      0.276343     -0.201153
  O       3.014128     -0.964705      0.663246
  O       3.777071     -0.071794     -1.501883
  O       3.844501      1.364836      0.524036
  Mg     -0.243204     -1.344031      1.035910
6
Coordinates from ORCA-job MgSO4_DFT E -898.736338149386
  O       1.684001      0.812910     -0.550636
  S       3.054227      0.275651     -0.202855
  O       3.013398     -0.964021      0.664978
  O       3.778712     -0.069398     -1.503543
  O       3.843748      1.362458      0.525903
  Mg     -0.242946     -1.343490      1.037635
6
Coordinates from ORCA-job MgSO4_DFT E -898.736346005486
  O       1.683306      0.812699     -0.551426
  S       3.054206      0.274989     -0.203659
  O       3.013333     -0.963372      0.665553
  O       3.779728     -0.069003     -1.505193
  O       3.843493      1.361952      0.527771
  Mg     -0.242926     -1.343155      1.038434
6
Coordinates from ORCA-job MgSO4_DFT E -898.736348442523
  O       1.683242      0.812667     -0.550811
  S       3.054188      0.274880     -0.203520
  O       3.013162     -0.963346      0.664824
  O       3.780042     -0.069649     -1.505248
  O       3.843630      1.362803      0.527838
  Mg     -0.243124     -1.343244      1.038397
6
Coordinates from ORCA-job MgSO4_DFT E -898.736349793241
  O       1.683292      0.812061     -0.551230
  S       3.054321      0.274903     -0.203848
  O       3.012455     -0.962692      0.665120
  O       3.780167     -0.069023     -1.505556
  O       3.844044      1.362259      0.528241
  Mg     -0.243140     -1.343397      1.038752
6
Coordinates from ORCA-job MgSO4_DFT E -898.736352119756
  O       1.683354      0.813171     -0.550088
  S       3.054112      0.274832     -0.203054
  O       3.013865     -0.964126      0.664170
  O       3.779874     -0.070426     -1.504755
  O       3.843188      1.363739      0.527231
  Mg     -0.243253     -1.343080      1.037975
6
Coordinates from ORCA-job MgSO4_DFT E -898.736352262698
  O       1.683368      0.813075     -0.550045
  S       3.054126      0.274805     -0.203090
  O       3.013808     -0.964110      0.664168
  O       3.779917     -0.070334     -1.504736
  O       3.843217      1.363742      0.527188
  Mg     -0.243296     -1.343069      1.037994
6
Coordinates from ORCA-job MgSO4_DFT E -898.736357421353
  O       1.683418      0.810998     -0.549085
  S       3.054514      0.274033     -0.204010
  O       3.012765     -0.963770      0.664310
  O       3.781139     -0.068265     -1.504775
  O       3.843615      1.363765      0.526550
  Mg     -0.244310     -1.342650      1.038488
6
Coordinates from ORCA-job MgSO4_DFT E -898.736358144874
  O       1.683307      0.810488     -0.548771
  S       3.054665      0.273892     -0.204128
  O       3.012874     -0.963757      0.664361
  O       3.781315     -0.067927     -1.504887
  O       3.843572      1.363812      0.526452
  Mg     -0.244592     -1.342399      1.038454
6
Coordinates from ORCA-job MgSO4_DFT E -898.736547722530
  O       1.677787      0.785274     -0.531227
  S       3.062279      0.267884     -0.207120
  O       3.025216     -0.965085      0.666639
  O       3.785884     -0.054017     -1.510152
  O       3.841374      1.369128      0.520095
  Mg     -0.261400     -1.329074      1.033245
6
Coordinates from ORCA-job MgSO4_DFT E -898.737350041506
  O       1.664846      0.723028     -0.485583
  S       3.080270      0.255775     -0.210055
  O       3.070815     -0.970883      0.671861
  O       3.789564     -0.024727     -1.522687
  O       3.835651      1.385868      0.502937
  Mg     -0.310006     -1.294951      1.015008
6
Coordinates from ORCA-job MgSO4_DFT E -898.738982072543
  O       1.653079      0.657011     -0.442206
  S       3.097024      0.245109     -0.210608
  O       3.130244     -0.981561      0.672495
  O       3.791523      0.004114     -1.534392
  O       3.823642      1.404246      0.488456
  Mg     -0.364371     -1.254809      0.997734
6
Coordinates from ORCA-job MgSO4_DFT E -898.739343588336
  O       1.651445      0.662413     -0.447532
  S       3.090671      0.249180     -0.206683
  O       3.142014     -0.981933      0.673087
  O       3.783327     -0.004690     -1.534889
  O       3.821437      1.401209      0.494482
  Mg     -0.357753     -1.252069      0.993015
6
Coordinates from ORCA-job MgSO4_DFT E -898.739966044277
  O       1.650642      0.679811     -0.459261
  S       3.077039      0.258427     -0.198121
  O       3.164657     -0.981196      0.671363
  O       3.766725     -0.026157     -1.532555
  O       3.819987      1.396193      0.504858
  Mg     -0.347911     -1.252967      0.985195
