24
Coordinates from ORCA-job Caffeine_DFT E -679.518416110756
  C       1.066380      0.094330     -0.073440
  N       2.506890      0.063120     -0.073860
  C       3.339740      1.150790     -0.075590
  N       4.608310      0.791750     -0.075540
  C       4.575070     -0.570020     -0.073680
  C       3.300010     -1.048230     -0.072610
  C       2.988060     -2.434690     -0.070610
  O       1.835010     -2.855390     -0.069730
  N       4.126920     -3.245460     -0.069770
  C       5.461870     -2.788900     -0.070880
  O       6.404690     -3.586190     -0.070080
  N       5.663480     -1.408270     -0.072910
  C       7.006060     -0.856760     -0.074120
  C       3.942010     -4.683400     -0.067640
  H       0.724210      1.132440     -0.074530
  H       0.707510     -0.410610      0.826840
  H       0.706940     -0.412710     -0.972300
  H       2.975820      2.170700     -0.076840
  H       7.768770     -1.639810     -0.073520
  H       7.139340     -0.238790      0.819500
  H       7.138590     -0.240890     -0.969310
  H       2.888120     -4.972180     -0.066730
  H       4.425540     -5.102830      0.820780
  H       4.424710     -5.105360     -0.955300
24
Coordinates from ORCA-job Caffeine_DFT E -679.523170548981
  C       1.029417      0.124406     -0.073460
  N       2.485982      0.078280     -0.073869
  C       3.334763      1.143731     -0.075628
  N       4.616813      0.789757     -0.075561
  C       4.585751     -0.566871     -0.073681
  C       3.290341     -1.042883     -0.072591
  C       2.981243     -2.444340     -0.070547
  O       1.843249     -2.911106     -0.069544
  N       4.137289     -3.244093     -0.069778
  C       5.468154     -2.786494     -0.070894
  O       6.396758     -3.585973     -0.070085
  N       5.673460     -1.412807     -0.072891
  C       7.024088     -0.865129     -0.074089
  C       3.972996     -4.694346     -0.067670
  H       0.706289      1.173164     -0.074634
  H       0.643848     -0.375199      0.825885
  H       0.643270     -0.377403     -0.971331
  H       2.967929      2.170626     -0.076914
  H       7.758346     -1.676050     -0.073456
  H       7.174554     -0.244054      0.822082
  H       7.173791     -0.246144     -0.971828
  H       2.910702     -4.954077     -0.066806
  H       4.452928     -5.123919      0.824499
  H       4.452090     -5.126437     -0.959078
24
Coordinates from ORCA-job Caffeine_DFT E -679.523831085198
  C       1.023707      0.132936     -0.073472
  N       2.482057      0.083334     -0.073872
  C       3.332286      1.138874     -0.075627
  N       4.618287      0.787954     -0.075591
  C       4.587956     -0.566890     -0.073677
  C       3.286277     -1.044299     -0.072571
  C       2.974259     -2.447677     -0.070504
  O       1.846627     -2.936609     -0.069441
  N       4.140784     -3.242712     -0.069775
  C       5.471857     -2.786277     -0.070871
  O       6.396819     -3.586121     -0.070079
  N       5.674850     -1.413600     -0.072871
  C       7.027140     -0.863579     -0.074089
  C       3.984911     -4.697662     -0.067688
  H       0.711130      1.185373     -0.074665
  H       0.627870     -0.364842      0.823022
  H       0.627297     -0.367041     -0.968490
  H       2.962871      2.165768     -0.076926
  H       7.742773     -1.691312     -0.073453
  H       7.184775     -0.241698      0.820670
  H       7.183974     -0.243769     -0.970419
  H       2.916091     -4.930787     -0.066913
  H       4.460108     -5.132112      0.824449
  H       4.459343     -5.134611     -0.959017
24
Coordinates from ORCA-job Caffeine_DFT E -679.523901113427
  C       1.025885      0.132692     -0.073464
  N       2.483147      0.084264     -0.073872
  C       3.332316      1.138264     -0.075656
  N       4.618493      0.787130     -0.075589
  C       4.587641     -0.567557     -0.073677
  C       3.285509     -1.046046     -0.072559
  C       2.970404     -2.447169     -0.070482
  O       1.845846     -2.940525     -0.069389
  N       4.141025     -3.241957     -0.069785
  C       5.472514     -2.786501     -0.070890
  O       6.398261     -3.585868     -0.070063
  N       5.674177     -1.413126     -0.072871
  C       7.026849     -0.861993     -0.074084
  C       3.986470     -4.698058     -0.067699
  H       0.714279      1.185305     -0.074681
  H       0.628718     -0.365908      0.821869
  H       0.628138     -0.368136     -0.967298
  H       2.962416      2.164867     -0.076967
  H       7.736441     -1.695161     -0.073478
  H       7.185270     -0.239721      0.819799
  H       7.184447     -0.241726     -0.969500
  H       2.915473     -4.922024     -0.066974
  H       4.460520     -5.132956      0.824355
  H       4.459811     -5.135450     -0.958914
24
Coordinates from ORCA-job Caffeine_DFT E -679.523913727311
  C       1.027638      0.131338     -0.073470
  N       2.484169      0.084551     -0.073866
  C       3.332809      1.138635     -0.075638
  N       4.618727      0.786800     -0.075605
  C       4.587377     -0.567839     -0.073668
  C       3.285590     -1.046698     -0.072544
  C       2.968607     -2.445948     -0.070471
  O       1.844979     -2.939964     -0.069371
  N       4.140950     -3.241343     -0.069774
  C       5.472176     -2.786551     -0.070844
  O       6.398729     -3.585488     -0.070071
  N       5.673768     -1.412558     -0.072857
  C       7.026871     -0.861612     -0.074099
  C       3.985844     -4.697707     -0.067703
  H       0.714338      1.183349     -0.074690
  H       0.631039     -0.368429      0.821390
  H       0.630474     -0.370658     -0.966832
  H       2.963152      2.165145     -0.076952
  H       7.734592     -1.696367     -0.073518
  H       7.184715     -0.239020      0.819431
  H       7.183843     -0.241004     -0.969156
  H       2.914309     -4.919429     -0.067052
  H       4.459971     -5.132041      0.824388
  H       4.459381     -5.134523     -0.958899
24
Coordinates from ORCA-job Caffeine_DFT E -679.523915764605
  C       1.028071      0.130649     -0.073457
  N       2.484460      0.084778     -0.073871
  C       3.333088      1.138991     -0.075664
  N       4.618908      0.786802     -0.075594
  C       4.587422     -0.567793     -0.073687
  C       3.285775     -1.046605     -0.072559
  C       2.968148     -2.445206     -0.070479
  O       1.844737     -2.939321     -0.069368
  N       4.141000     -3.241045     -0.069804
  C       5.471793     -2.786551     -0.070916
  O       6.398706     -3.585259     -0.070033
  N       5.673763     -1.412253     -0.072886
  C       7.027180     -0.861834     -0.074090
  C       3.985201     -4.697402     -0.067697
  H       0.713313      1.182198     -0.074680
  H       0.632057     -0.369782      0.821293
  H       0.631474     -0.372020     -0.966695
  H       2.963711      2.165557     -0.076975
  H       7.734643     -1.696734     -0.073560
  H       7.184499     -0.239116      0.819427
  H       7.183628     -0.240991     -0.969057
  H       2.913746     -4.919344     -0.067054
  H       4.459644     -5.131280      0.824441
  H       4.459081     -5.133801     -0.958906
